
---------- Begin Simulation Statistics ----------
host_inst_rate                                 579692                       # Simulator instruction rate (inst/s)
host_mem_usage                                 384416                       # Number of bytes of host memory used
host_seconds                                    34.50                       # Real time elapsed on the host
host_tick_rate                              529744206                       # Simulator tick rate (ticks/s)
sim_freq                                 1000000000000                       # Frequency of simulated ticks
sim_insts                                    20000003                       # Number of instructions simulated
sim_seconds                                  0.018278                       # Number of seconds simulated
sim_ticks                                 18277740500                       # Number of ticks simulated
system.cpu.dcache.ReadReq_accesses            3326057                       # number of ReadReq accesses(hits+misses)
system.cpu.dcache.ReadReq_avg_miss_latency 28089.442463                       # average ReadReq miss latency
system.cpu.dcache.ReadReq_avg_mshr_miss_latency 22624.350298                       # average ReadReq mshr miss latency
system.cpu.dcache.ReadReq_hits                3222046                       # number of ReadReq hits
system.cpu.dcache.ReadReq_miss_latency     2921611000                       # number of ReadReq miss cycles
system.cpu.dcache.ReadReq_miss_rate          0.031272                       # miss rate for ReadReq accesses
system.cpu.dcache.ReadReq_misses               104011                       # number of ReadReq misses
system.cpu.dcache.ReadReq_mshr_hits             19934                       # number of ReadReq MSHR hits
system.cpu.dcache.ReadReq_mshr_miss_latency   1902187500                       # number of ReadReq MSHR miss cycles
system.cpu.dcache.ReadReq_mshr_miss_rate     0.025278                       # mshr miss rate for ReadReq accesses
system.cpu.dcache.ReadReq_mshr_misses           84077                       # number of ReadReq MSHR misses
system.cpu.dcache.WriteReq_accesses           2822830                       # number of WriteReq accesses(hits+misses)
system.cpu.dcache.WriteReq_avg_miss_latency 53496.868289                       # average WriteReq miss latency
system.cpu.dcache.WriteReq_avg_mshr_miss_latency 57470.499451                       # average WriteReq mshr miss latency
system.cpu.dcache.WriteReq_hits               2817242                       # number of WriteReq hits
system.cpu.dcache.WriteReq_miss_latency     298940500                       # number of WriteReq miss cycles
system.cpu.dcache.WriteReq_miss_rate         0.001980                       # miss rate for WriteReq accesses
system.cpu.dcache.WriteReq_misses                5588                       # number of WriteReq misses
system.cpu.dcache.WriteReq_mshr_hits             1943                       # number of WriteReq MSHR hits
system.cpu.dcache.WriteReq_mshr_miss_latency    209422500                       # number of WriteReq MSHR miss cycles
system.cpu.dcache.WriteReq_mshr_miss_rate     0.001291                       # mshr miss rate for WriteReq accesses
system.cpu.dcache.WriteReq_mshr_misses           3644                       # number of WriteReq MSHR misses
system.cpu.dcache.avg_blocked_cycles::no_mshrs     no_value                       # average number of cycles each access was blocked
system.cpu.dcache.avg_blocked_cycles::no_targets 26713.625561                       # average number of cycles each access was blocked
system.cpu.dcache.avg_refs                  69.431624                       # Average number of references to valid blocks.
system.cpu.dcache.blocked::no_mshrs                 0                       # number of cycles access was blocked
system.cpu.dcache.blocked::no_targets            3787                       # number of cycles access was blocked
system.cpu.dcache.blocked_cycles::no_mshrs            0                       # number of cycles access was blocked
system.cpu.dcache.blocked_cycles::no_targets    101164500                       # number of cycles access was blocked
system.cpu.dcache.cache_copies                      0                       # number of cache copies performed
system.cpu.dcache.demand_accesses             6148887                       # number of demand (read+write) accesses
system.cpu.dcache.demand_avg_miss_latency 29384.862088                       # average overall miss latency
system.cpu.dcache.demand_avg_mshr_miss_latency 24071.887005                       # average overall mshr miss latency
system.cpu.dcache.demand_hits                 6039288                       # number of demand (read+write) hits
system.cpu.dcache.demand_miss_latency      3220551500                       # number of demand (read+write) miss cycles
system.cpu.dcache.demand_miss_rate           0.017824                       # miss rate for demand accesses
system.cpu.dcache.demand_misses                109599                       # number of demand (read+write) misses
system.cpu.dcache.demand_mshr_hits              21877                       # number of demand (read+write) MSHR hits
system.cpu.dcache.demand_mshr_miss_latency   2111610000                       # number of demand (read+write) MSHR miss cycles
system.cpu.dcache.demand_mshr_miss_rate      0.014266                       # mshr miss rate for demand accesses
system.cpu.dcache.demand_mshr_misses            87721                       # number of demand (read+write) MSHR misses
system.cpu.dcache.fast_writes                       0                       # number of fast writes performed
system.cpu.dcache.mshr_cap_events                   0                       # number of times MSHR cap was activated
system.cpu.dcache.no_allocate_misses                0                       # Number of misses that were no-allocate
system.cpu.dcache.occ_%::0                   0.980846                       # Average percentage of cache occupancy
system.cpu.dcache.occ_blocks::0           1004.386598                       # Average occupied blocks per context
system.cpu.dcache.overall_accesses            6148887                       # number of overall (read+write) accesses
system.cpu.dcache.overall_avg_miss_latency 29384.862088                       # average overall miss latency
system.cpu.dcache.overall_avg_mshr_miss_latency 24071.887005                       # average overall mshr miss latency
system.cpu.dcache.overall_avg_mshr_uncacheable_latency     no_value                       # average overall mshr uncacheable latency
system.cpu.dcache.overall_hits                6039288                       # number of overall hits
system.cpu.dcache.overall_miss_latency     3220551500                       # number of overall miss cycles
system.cpu.dcache.overall_miss_rate          0.017824                       # miss rate for overall accesses
system.cpu.dcache.overall_misses               109599                       # number of overall misses
system.cpu.dcache.overall_mshr_hits             21877                       # number of overall MSHR hits
system.cpu.dcache.overall_mshr_miss_latency   2111610000                       # number of overall MSHR miss cycles
system.cpu.dcache.overall_mshr_miss_rate     0.014266                       # mshr miss rate for overall accesses
system.cpu.dcache.overall_mshr_misses           87721                       # number of overall MSHR misses
system.cpu.dcache.overall_mshr_uncacheable_latency            0                       # number of overall MSHR uncacheable cycles
system.cpu.dcache.overall_mshr_uncacheable_misses            0                       # number of overall MSHR uncacheable misses
system.cpu.dcache.prefetch_accuracy          no_value                       # ratio of good prefetches to total prefetches
system.cpu.dcache.prefetch_hits                     0                       # number of prefetched blocks that were accessed
system.cpu.dcache.replacements                  85973                       # number of replacements
system.cpu.dcache.sampled_refs                  86997                       # Sample count of references to valid blocks.
system.cpu.dcache.soft_prefetch_mshr_full            0                       # number of mshr full events for SW prefetching instrutions
system.cpu.dcache.tagsinuse               1004.386598                       # Cycle average of tags in use
system.cpu.dcache.total_refs                  6040343                       # Total number of references to valid blocks.
system.cpu.dcache.warmup_cycle           502144665000                       # Cycle when the warmup percentage was hit.
system.cpu.dcache.writebacks                     3601                       # number of writebacks
system.cpu.dtb.data_accesses                        1                       # DTB accesses
system.cpu.dtb.data_acv                             0                       # DTB access violations
system.cpu.dtb.data_hits                            1                       # DTB hits
system.cpu.dtb.data_misses                          0                       # DTB misses
system.cpu.dtb.fetch_accesses                       0                       # ITB accesses
system.cpu.dtb.fetch_acv                            0                       # ITB acv
system.cpu.dtb.fetch_hits                           0                       # ITB hits
system.cpu.dtb.fetch_misses                         0                       # ITB misses
system.cpu.dtb.read_accesses                        0                       # DTB read accesses
system.cpu.dtb.read_acv                             0                       # DTB read access violations
system.cpu.dtb.read_hits                            0                       # DTB read hits
system.cpu.dtb.read_misses                          0                       # DTB read misses
system.cpu.dtb.write_accesses                       1                       # DTB write accesses
system.cpu.dtb.write_acv                            0                       # DTB write access violations
system.cpu.dtb.write_hits                           1                       # DTB write hits
system.cpu.dtb.write_misses                         0                       # DTB write misses
system.cpu.icache.ReadReq_accesses           12286597                       # number of ReadReq accesses(hits+misses)
system.cpu.icache.ReadReq_avg_miss_latency 48423.076923                       # average ReadReq miss latency
system.cpu.icache.ReadReq_avg_mshr_miss_latency 57062.500000                       # average ReadReq mshr miss latency
system.cpu.icache.ReadReq_hits               12286584                       # number of ReadReq hits
system.cpu.icache.ReadReq_miss_latency         629500                       # number of ReadReq miss cycles
system.cpu.icache.ReadReq_miss_rate          0.000001                       # miss rate for ReadReq accesses
system.cpu.icache.ReadReq_misses                   13                       # number of ReadReq misses
system.cpu.icache.ReadReq_mshr_hits                 4                       # number of ReadReq MSHR hits
system.cpu.icache.ReadReq_mshr_miss_latency       456500                       # number of ReadReq MSHR miss cycles
system.cpu.icache.ReadReq_mshr_miss_rate     0.000001                       # mshr miss rate for ReadReq accesses
system.cpu.icache.ReadReq_mshr_misses               8                       # number of ReadReq MSHR misses
system.cpu.icache.avg_blocked_cycles::no_mshrs     no_value                       # average number of cycles each access was blocked
system.cpu.icache.avg_blocked_cycles::no_targets        22500                       # average number of cycles each access was blocked
system.cpu.icache.avg_refs                    1365176                       # Average number of references to valid blocks.
system.cpu.icache.blocked::no_mshrs                 0                       # number of cycles access was blocked
system.cpu.icache.blocked::no_targets               1                       # number of cycles access was blocked
system.cpu.icache.blocked_cycles::no_mshrs            0                       # number of cycles access was blocked
system.cpu.icache.blocked_cycles::no_targets        22500                       # number of cycles access was blocked
system.cpu.icache.cache_copies                      0                       # number of cache copies performed
system.cpu.icache.demand_accesses            12286597                       # number of demand (read+write) accesses
system.cpu.icache.demand_avg_miss_latency 48423.076923                       # average overall miss latency
system.cpu.icache.demand_avg_mshr_miss_latency 57062.500000                       # average overall mshr miss latency
system.cpu.icache.demand_hits                12286584                       # number of demand (read+write) hits
system.cpu.icache.demand_miss_latency          629500                       # number of demand (read+write) miss cycles
system.cpu.icache.demand_miss_rate           0.000001                       # miss rate for demand accesses
system.cpu.icache.demand_misses                    13                       # number of demand (read+write) misses
system.cpu.icache.demand_mshr_hits                  4                       # number of demand (read+write) MSHR hits
system.cpu.icache.demand_mshr_miss_latency       456500                       # number of demand (read+write) MSHR miss cycles
system.cpu.icache.demand_mshr_miss_rate      0.000001                       # mshr miss rate for demand accesses
system.cpu.icache.demand_mshr_misses                8                       # number of demand (read+write) MSHR misses
system.cpu.icache.fast_writes                       0                       # number of fast writes performed
system.cpu.icache.mshr_cap_events                   0                       # number of times MSHR cap was activated
system.cpu.icache.no_allocate_misses                0                       # Number of misses that were no-allocate
system.cpu.icache.occ_%::0                   0.012830                       # Average percentage of cache occupancy
system.cpu.icache.occ_blocks::0              6.568743                       # Average occupied blocks per context
system.cpu.icache.overall_accesses           12286597                       # number of overall (read+write) accesses
system.cpu.icache.overall_avg_miss_latency 48423.076923                       # average overall miss latency
system.cpu.icache.overall_avg_mshr_miss_latency 57062.500000                       # average overall mshr miss latency
system.cpu.icache.overall_avg_mshr_uncacheable_latency     no_value                       # average overall mshr uncacheable latency
system.cpu.icache.overall_hits               12286584                       # number of overall hits
system.cpu.icache.overall_miss_latency         629500                       # number of overall miss cycles
system.cpu.icache.overall_miss_rate          0.000001                       # miss rate for overall accesses
system.cpu.icache.overall_misses                   13                       # number of overall misses
system.cpu.icache.overall_mshr_hits                 4                       # number of overall MSHR hits
system.cpu.icache.overall_mshr_miss_latency       456500                       # number of overall MSHR miss cycles
system.cpu.icache.overall_mshr_miss_rate     0.000001                       # mshr miss rate for overall accesses
system.cpu.icache.overall_mshr_misses               8                       # number of overall MSHR misses
system.cpu.icache.overall_mshr_uncacheable_latency            0                       # number of overall MSHR uncacheable cycles
system.cpu.icache.overall_mshr_uncacheable_misses            0                       # number of overall MSHR uncacheable misses
system.cpu.icache.prefetch_accuracy          no_value                       # ratio of good prefetches to total prefetches
system.cpu.icache.prefetch_hits                     0                       # number of prefetched blocks that were accessed
system.cpu.icache.replacements                      0                       # number of replacements
system.cpu.icache.sampled_refs                      9                       # Sample count of references to valid blocks.
system.cpu.icache.soft_prefetch_mshr_full            0                       # number of mshr full events for SW prefetching instrutions
system.cpu.icache.tagsinuse                  6.568743                       # Cycle average of tags in use
system.cpu.icache.total_refs                 12286584                       # Total number of references to valid blocks.
system.cpu.icache.warmup_cycle                      0                       # Cycle when the warmup percentage was hit.
system.cpu.icache.writebacks                        0                       # number of writebacks
system.cpu.idle_fraction                            0                       # Percentage of idle cycles
system.cpu.itb.data_accesses                        0                       # DTB accesses
system.cpu.itb.data_acv                             0                       # DTB access violations
system.cpu.itb.data_hits                            0                       # DTB hits
system.cpu.itb.data_misses                          0                       # DTB misses
system.cpu.itb.fetch_accesses                       2                       # ITB accesses
system.cpu.itb.fetch_acv                            0                       # ITB acv
system.cpu.itb.fetch_hits                           2                       # ITB hits
system.cpu.itb.fetch_misses                         0                       # ITB misses
system.cpu.itb.read_accesses                        0                       # DTB read accesses
system.cpu.itb.read_acv                             0                       # DTB read access violations
system.cpu.itb.read_hits                            0                       # DTB read hits
system.cpu.itb.read_misses                          0                       # DTB read misses
system.cpu.itb.write_accesses                       0                       # DTB write accesses
system.cpu.itb.write_acv                            0                       # DTB write access violations
system.cpu.itb.write_hits                           0                       # DTB write hits
system.cpu.itb.write_misses                         0                       # DTB write misses
system.cpu.not_idle_fraction                        1                       # Percentage of non-idle cycles
system.cpu.numCycles                                2                       # number of cpu cycles simulated
system.cpu.num_insts                                2                       # Number of instructions executed
system.cpu.num_refs                                 1                       # Number of memory references
system.cpu.workload.PROG:num_syscalls               0                       # Number of system calls
system.l2.HardPFReq_avg_mshr_miss_latency 45361.277401                       # average HardPFReq mshr miss latency
system.l2.HardPFReq_mshr_miss_latency       194100906                       # number of HardPFReq MSHR miss cycles
system.l2.HardPFReq_mshr_miss_rate                inf                       # mshr miss rate for HardPFReq accesses
system.l2.HardPFReq_mshr_misses                  4279                       # number of HardPFReq MSHR misses
system.l2.ReadExReq_accesses                     2920                       # number of ReadExReq accesses(hits+misses)
system.l2.ReadExReq_avg_miss_latency     56415.239726                       # average ReadExReq miss latency
system.l2.ReadExReq_avg_mshr_miss_latency 40482.014388                       # average ReadExReq mshr miss latency
system.l2.ReadExReq_miss_latency            164732500                       # number of ReadExReq miss cycles
system.l2.ReadExReq_miss_rate                       1                       # miss rate for ReadExReq accesses
system.l2.ReadExReq_misses                       2920                       # number of ReadExReq misses
system.l2.ReadExReq_mshr_miss_latency       118167000                       # number of ReadExReq MSHR miss cycles
system.l2.ReadExReq_mshr_miss_rate           0.999658                       # mshr miss rate for ReadExReq accesses
system.l2.ReadExReq_mshr_misses                  2919                       # number of ReadExReq MSHR misses
system.l2.ReadReq_accesses                      84086                       # number of ReadReq accesses(hits+misses)
system.l2.ReadReq_avg_miss_latency       57986.263460                       # average ReadReq miss latency
system.l2.ReadReq_avg_mshr_miss_latency  42147.120999                       # average ReadReq mshr miss latency
system.l2.ReadReq_hits                          64212                       # number of ReadReq hits
system.l2.ReadReq_miss_latency             1152419000                       # number of ReadReq miss cycles
system.l2.ReadReq_miss_rate                  0.236353                       # miss rate for ReadReq accesses
system.l2.ReadReq_misses                        19874                       # number of ReadReq misses
system.l2.ReadReq_mshr_hits                         5                       # number of ReadReq MSHR hits
system.l2.ReadReq_mshr_miss_latency         837379000                       # number of ReadReq MSHR miss cycles
system.l2.ReadReq_mshr_miss_rate             0.236282                       # mshr miss rate for ReadReq accesses
system.l2.ReadReq_mshr_misses                   19868                       # number of ReadReq MSHR misses
system.l2.UpgradeReq_accesses                     725                       # number of UpgradeReq accesses(hits+misses)
system.l2.UpgradeReq_avg_miss_latency    56468.965517                       # average UpgradeReq miss latency
system.l2.UpgradeReq_avg_mshr_miss_latency 40505.517241                       # average UpgradeReq mshr miss latency
system.l2.UpgradeReq_miss_latency            40940000                       # number of UpgradeReq miss cycles
system.l2.UpgradeReq_miss_rate                      1                       # miss rate for UpgradeReq accesses
system.l2.UpgradeReq_misses                       725                       # number of UpgradeReq misses
system.l2.UpgradeReq_mshr_miss_latency       29366500                       # number of UpgradeReq MSHR miss cycles
system.l2.UpgradeReq_mshr_miss_rate                 1                       # mshr miss rate for UpgradeReq accesses
system.l2.UpgradeReq_mshr_misses                  725                       # number of UpgradeReq MSHR misses
system.l2.Writeback_accesses                     3601                       # number of Writeback accesses(hits+misses)
system.l2.Writeback_hits                         3601                       # number of Writeback hits
system.l2.avg_blocked_cycles::no_mshrs       no_value                       # average number of cycles each access was blocked
system.l2.avg_blocked_cycles::no_targets     no_value                       # average number of cycles each access was blocked
system.l2.avg_refs                           2.781937                       # Average number of references to valid blocks.
system.l2.blocked::no_mshrs                         0                       # number of cycles access was blocked
system.l2.blocked::no_targets                       0                       # number of cycles access was blocked
system.l2.blocked_cycles::no_mshrs                  0                       # number of cycles access was blocked
system.l2.blocked_cycles::no_targets                0                       # number of cycles access was blocked
system.l2.cache_copies                              0                       # number of cache copies performed
system.l2.demand_accesses                       87006                       # number of demand (read+write) accesses
system.l2.demand_avg_miss_latency        57785.009213                       # average overall miss latency
system.l2.demand_avg_mshr_miss_latency   41933.821916                       # average overall mshr miss latency
system.l2.demand_hits                           64212                       # number of demand (read+write) hits
system.l2.demand_miss_latency              1317151500                       # number of demand (read+write) miss cycles
system.l2.demand_miss_rate                   0.261982                       # miss rate for demand accesses
system.l2.demand_misses                         22794                       # number of demand (read+write) misses
system.l2.demand_mshr_hits                          5                       # number of demand (read+write) MSHR hits
system.l2.demand_mshr_miss_latency          955546000                       # number of demand (read+write) MSHR miss cycles
system.l2.demand_mshr_miss_rate              0.261901                       # mshr miss rate for demand accesses
system.l2.demand_mshr_misses                    22787                       # number of demand (read+write) MSHR misses
system.l2.fast_writes                               0                       # number of fast writes performed
system.l2.mshr_cap_events                           0                       # number of times MSHR cap was activated
system.l2.no_allocate_misses                        0                       # Number of misses that were no-allocate
system.l2.occ_%::0                           0.598946                       # Average percentage of cache occupancy
system.l2.occ_%::1                           0.001424                       # Average percentage of cache occupancy
system.l2.occ_blocks::0                   9813.137225                       # Average occupied blocks per context
system.l2.occ_blocks::1                     23.328531                       # Average occupied blocks per context
system.l2.overall_accesses                      87006                       # number of overall (read+write) accesses
system.l2.overall_avg_miss_latency       57785.009213                       # average overall miss latency
system.l2.overall_avg_mshr_miss_latency  42475.685583                       # average overall mshr miss latency
system.l2.overall_avg_mshr_uncacheable_latency     no_value                       # average overall mshr uncacheable latency
system.l2.overall_hits                          64212                       # number of overall hits
system.l2.overall_miss_latency             1317151500                       # number of overall miss cycles
system.l2.overall_miss_rate                  0.261982                       # miss rate for overall accesses
system.l2.overall_misses                        22794                       # number of overall misses
system.l2.overall_mshr_hits                         5                       # number of overall MSHR hits
system.l2.overall_mshr_miss_latency        1149646906                       # number of overall MSHR miss cycles
system.l2.overall_mshr_miss_rate             0.311082                       # mshr miss rate for overall accesses
system.l2.overall_mshr_misses                   27066                       # number of overall MSHR misses
system.l2.overall_mshr_uncacheable_latency            0                       # number of overall MSHR uncacheable cycles
system.l2.overall_mshr_uncacheable_misses            0                       # number of overall MSHR uncacheable misses
system.l2.prefetch_accuracy                  0.915401                       # ratio of good prefetches to total prefetches
system.l2.prefetch_hits                          3917                       # number of prefetched blocks that were accessed
system.l2.prefetcher.num_hwpf_already_in_prefetcher           48                       # number of hwpf that were already in the prefetch queue
system.l2.prefetcher.num_hwpf_evicted               0                       # number of hwpf removed due to no buffer left
system.l2.prefetcher.num_hwpf_identified         4332                       # number of hwpf identified
system.l2.prefetcher.num_hwpf_issued             4279                       # number of hwpf issued
system.l2.prefetcher.num_hwpf_removed_MSHR_hit            5                       # number of hwpf removed because MSHR allocated
system.l2.prefetcher.num_hwpf_span_page             0                       # number of hwpf spanning a virtual page
system.l2.prefetcher.num_hwpf_squashed_from_miss            0                       # number of hwpf that got squashed due to a miss aborting calculation time
system.l2.replacements                           9241                       # number of replacements
system.l2.sampled_refs                          24149                       # Sample count of references to valid blocks.
system.l2.soft_prefetch_mshr_full                   0                       # number of mshr full events for SW prefetching instrutions
system.l2.tagsinuse                       9836.465756                       # Cycle average of tags in use
system.l2.total_refs                            67181                       # Total number of references to valid blocks.
system.l2.warmup_cycle                              0                       # Cycle when the warmup percentage was hit.
system.l2.writebacks                             1287                       # number of writebacks
system.switch_cpus.dtb.data_accesses          2972120                       # DTB accesses
system.switch_cpus.dtb.data_acv                     0                       # DTB access violations
system.switch_cpus.dtb.data_hits              2969257                       # DTB hits
system.switch_cpus.dtb.data_misses               2863                       # DTB misses
system.switch_cpus.dtb.fetch_accesses               0                       # ITB accesses
system.switch_cpus.dtb.fetch_acv                    0                       # ITB acv
system.switch_cpus.dtb.fetch_hits                   0                       # ITB hits
system.switch_cpus.dtb.fetch_misses                 0                       # ITB misses
system.switch_cpus.dtb.read_accesses          1546660                       # DTB read accesses
system.switch_cpus.dtb.read_acv                     0                       # DTB read access violations
system.switch_cpus.dtb.read_hits              1543848                       # DTB read hits
system.switch_cpus.dtb.read_misses               2812                       # DTB read misses
system.switch_cpus.dtb.write_accesses         1425460                       # DTB write accesses
system.switch_cpus.dtb.write_acv                    0                       # DTB write access violations
system.switch_cpus.dtb.write_hits             1425409                       # DTB write hits
system.switch_cpus.dtb.write_misses                51                       # DTB write misses
system.switch_cpus.idle_fraction                    1                       # Percentage of idle cycles
system.switch_cpus.itb.data_accesses                0                       # DTB accesses
system.switch_cpus.itb.data_acv                     0                       # DTB access violations
system.switch_cpus.itb.data_hits                    0                       # DTB hits
system.switch_cpus.itb.data_misses                  0                       # DTB misses
system.switch_cpus.itb.fetch_accesses        10002866                       # ITB accesses
system.switch_cpus.itb.fetch_acv                    0                       # ITB acv
system.switch_cpus.itb.fetch_hits            10002865                       # ITB hits
system.switch_cpus.itb.fetch_misses                 1                       # ITB misses
system.switch_cpus.itb.read_accesses                0                       # DTB read accesses
system.switch_cpus.itb.read_acv                     0                       # DTB read access violations
system.switch_cpus.itb.read_hits                    0                       # DTB read hits
system.switch_cpus.itb.read_misses                  0                       # DTB read misses
system.switch_cpus.itb.write_accesses               0                       # DTB write accesses
system.switch_cpus.itb.write_acv                    0                       # DTB write access violations
system.switch_cpus.itb.write_hits                   0                       # DTB write hits
system.switch_cpus.itb.write_misses                 0                       # DTB write misses
system.switch_cpus.not_idle_fraction                0                       # Percentage of non-idle cycles
system.switch_cpus.numCycles                 28038132                       # number of cpu cycles simulated
system.switch_cpus.num_insts                 10000001                       # Number of instructions executed
system.switch_cpus.num_refs                   2972120                       # Number of memory references
system.switch_cpus_1.BPredUnit.BTBCorrect            0                       # Number of correct BTB predictions (this stat may not work properly.
system.switch_cpus_1.BPredUnit.BTBHits        2134393                       # Number of BTB hits
system.switch_cpus_1.BPredUnit.BTBLookups      2196389                       # Number of BTB lookups
system.switch_cpus_1.BPredUnit.RASInCorrect            0                       # Number of incorrect RAS predictions.
system.switch_cpus_1.BPredUnit.condIncorrect       160229                       # Number of conditional branches incorrect
system.switch_cpus_1.BPredUnit.condPredicted      2192287                       # Number of conditional branches predicted
system.switch_cpus_1.BPredUnit.lookups        2352147                       # Number of BP lookups
system.switch_cpus_1.BPredUnit.usedRAS              0                       # Number of times the RAS was used to get a target.
system.switch_cpus_1.commit.COM:branches      1623752                       # Number of branches committed
system.switch_cpus_1.commit.COM:bw_lim_events        92806                       # number cycles where commit BW limit reached
system.switch_cpus_1.commit.COM:bw_limited            0                       # number of insts not committed due to BW limits
system.switch_cpus_1.commit.COM:committed_per_cycle::samples      7982460                       # Number of insts commited each cycle
system.switch_cpus_1.commit.COM:committed_per_cycle::mean     1.302670                       # Number of insts commited each cycle
system.switch_cpus_1.commit.COM:committed_per_cycle::stdev     1.766250                       # Number of insts commited each cycle
system.switch_cpus_1.commit.COM:committed_per_cycle::underflows            0      0.00%      0.00% # Number of insts commited each cycle
system.switch_cpus_1.commit.COM:committed_per_cycle::0      3404213     42.65%     42.65% # Number of insts commited each cycle
system.switch_cpus_1.commit.COM:committed_per_cycle::1      2843940     35.63%     78.27% # Number of insts commited each cycle
system.switch_cpus_1.commit.COM:committed_per_cycle::2       167194      2.09%     80.37% # Number of insts commited each cycle
system.switch_cpus_1.commit.COM:committed_per_cycle::3        75388      0.94%     81.31% # Number of insts commited each cycle
system.switch_cpus_1.commit.COM:committed_per_cycle::4       755526      9.46%     90.78% # Number of insts commited each cycle
system.switch_cpus_1.commit.COM:committed_per_cycle::5       634240      7.95%     98.72% # Number of insts commited each cycle
system.switch_cpus_1.commit.COM:committed_per_cycle::6         5807      0.07%     98.80% # Number of insts commited each cycle
system.switch_cpus_1.commit.COM:committed_per_cycle::7         3346      0.04%     98.84% # Number of insts commited each cycle
system.switch_cpus_1.commit.COM:committed_per_cycle::8        92806      1.16%    100.00% # Number of insts commited each cycle
system.switch_cpus_1.commit.COM:committed_per_cycle::overflows            0      0.00%    100.00% # Number of insts commited each cycle
system.switch_cpus_1.commit.COM:committed_per_cycle::min_value            0                       # Number of insts commited each cycle
system.switch_cpus_1.commit.COM:committed_per_cycle::max_value            8                       # Number of insts commited each cycle
system.switch_cpus_1.commit.COM:committed_per_cycle::total      7982460                       # Number of insts commited each cycle
system.switch_cpus_1.commit.COM:count        10398508                       # Number of instructions committed
system.switch_cpus_1.commit.COM:loads         1606582                       # Number of loads committed
system.switch_cpus_1.commit.COM:membars             0                       # Number of memory barriers committed
system.switch_cpus_1.commit.COM:refs          3004003                       # Number of memory references committed
system.switch_cpus_1.commit.COM:swp_count            0                       # Number of s/w prefetches committed
system.switch_cpus_1.commit.branchMispredicts       160225                       # The number of times a branch was mispredicted
system.switch_cpus_1.commit.commitCommittedInsts     10398508                       # The number of committed instructions
system.switch_cpus_1.commit.commitSquashedInsts      3038849                       # The number of squashed insts skipped by commit
system.switch_cpus_1.committedInsts          10000000                       # Number of Instructions Simulated
system.switch_cpus_1.committedInsts_total     10000000                       # Number of Instructions Simulated
system.switch_cpus_1.cpi                     0.851735                       # CPI: Cycles Per Instruction
system.switch_cpus_1.cpi_total               0.851735                       # CPI: Total CPI of All Threads
system.switch_cpus_1.decode.DECODE:BlockedCycles       102230                       # Number of cycles decode is blocked
system.switch_cpus_1.decode.DECODE:BranchMispred          227                       # Number of times decode detected a branch misprediction
system.switch_cpus_1.decode.DECODE:BranchResolved       154478                       # Number of times decode resolved a branch
system.switch_cpus_1.decode.DECODE:DecodedInsts     14661774                       # Number of instructions handled by decode
system.switch_cpus_1.decode.DECODE:IdleCycles      4591355                       # Number of cycles decode is idle
system.switch_cpus_1.decode.DECODE:RunCycles      3284432                       # Number of cycles decode is running
system.switch_cpus_1.decode.DECODE:SquashCycles       516721                       # Number of cycles decode is squashing
system.switch_cpus_1.decode.DECODE:SquashedInsts            8                       # Number of squashed instructions handled by decode
system.switch_cpus_1.decode.DECODE:UnblockCycles         4442                       # Number of cycles decode is unblocking
system.switch_cpus_1.dtb.data_accesses        3585607                       # DTB accesses
system.switch_cpus_1.dtb.data_acv                   0                       # DTB access violations
system.switch_cpus_1.dtb.data_hits            3578979                       # DTB hits
system.switch_cpus_1.dtb.data_misses             6628                       # DTB misses
system.switch_cpus_1.dtb.fetch_accesses             0                       # ITB accesses
system.switch_cpus_1.dtb.fetch_acv                  0                       # ITB acv
system.switch_cpus_1.dtb.fetch_hits                 0                       # ITB hits
system.switch_cpus_1.dtb.fetch_misses               0                       # ITB misses
system.switch_cpus_1.dtb.read_accesses        1948551                       # DTB read accesses
system.switch_cpus_1.dtb.read_acv                   0                       # DTB read access violations
system.switch_cpus_1.dtb.read_hits            1942185                       # DTB read hits
system.switch_cpus_1.dtb.read_misses             6366                       # DTB read misses
system.switch_cpus_1.dtb.write_accesses       1637056                       # DTB write accesses
system.switch_cpus_1.dtb.write_acv                  0                       # DTB write access violations
system.switch_cpus_1.dtb.write_hits           1636794                       # DTB write hits
system.switch_cpus_1.dtb.write_misses             262                       # DTB write misses
system.switch_cpus_1.fetch.Branches           2352147                       # Number of branches that fetch encountered
system.switch_cpus_1.fetch.CacheLines         2283730                       # Number of cache lines fetched
system.switch_cpus_1.fetch.Cycles             5625952                       # Number of cycles fetch has run and was not squashing or blocked
system.switch_cpus_1.fetch.IcacheSquashes        41951                       # Number of outstanding Icache misses that were squashed
system.switch_cpus_1.fetch.Insts             14962556                       # Number of instructions fetch has processed
system.switch_cpus_1.fetch.SquashCycles        188559                       # Number of cycles fetch has spent squashing
system.switch_cpus_1.fetch.branchRate        0.276160                       # Number of branch fetches per cycle
system.switch_cpus_1.fetch.icacheStallCycles      2283730                       # Number of cycles fetch is stalled on an Icache miss
system.switch_cpus_1.fetch.predictedBranches      2134393                       # Number of branches that fetch has predicted taken
system.switch_cpus_1.fetch.rate              1.756715                       # Number of inst fetches per cycle
system.switch_cpus_1.fetch.rateDist::samples      8499181                       # Number of instructions fetched each cycle (Total)
system.switch_cpus_1.fetch.rateDist::mean     1.760470                       # Number of instructions fetched each cycle (Total)
system.switch_cpus_1.fetch.rateDist::stdev     2.696179                       # Number of instructions fetched each cycle (Total)
system.switch_cpus_1.fetch.rateDist::underflows            0      0.00%      0.00% # Number of instructions fetched each cycle (Total)
system.switch_cpus_1.fetch.rateDist::0        5156959     60.68%     60.68% # Number of instructions fetched each cycle (Total)
system.switch_cpus_1.fetch.rateDist::1         796512      9.37%     70.05% # Number of instructions fetched each cycle (Total)
system.switch_cpus_1.fetch.rateDist::2         188665      2.22%     72.27% # Number of instructions fetched each cycle (Total)
system.switch_cpus_1.fetch.rateDist::3          52704      0.62%     72.89% # Number of instructions fetched each cycle (Total)
system.switch_cpus_1.fetch.rateDist::4         543086      6.39%     79.28% # Number of instructions fetched each cycle (Total)
system.switch_cpus_1.fetch.rateDist::5         685082      8.06%     87.34% # Number of instructions fetched each cycle (Total)
system.switch_cpus_1.fetch.rateDist::6          27984      0.33%     87.67% # Number of instructions fetched each cycle (Total)
system.switch_cpus_1.fetch.rateDist::7         520568      6.12%     93.79% # Number of instructions fetched each cycle (Total)
system.switch_cpus_1.fetch.rateDist::8         527621      6.21%    100.00% # Number of instructions fetched each cycle (Total)
system.switch_cpus_1.fetch.rateDist::overflows            0      0.00%    100.00% # Number of instructions fetched each cycle (Total)
system.switch_cpus_1.fetch.rateDist::min_value            0                       # Number of instructions fetched each cycle (Total)
system.switch_cpus_1.fetch.rateDist::max_value            8                       # Number of instructions fetched each cycle (Total)
system.switch_cpus_1.fetch.rateDist::total      8499181                       # Number of instructions fetched each cycle (Total)
system.switch_cpus_1.idleCycles                 18167                       # Total number of cycles that the CPU has spent unscheduled due to idling
system.switch_cpus_1.iew.EXEC:branches        1996578                       # Number of branches executed
system.switch_cpus_1.iew.EXEC:nop              885284                       # number of nop insts executed
system.switch_cpus_1.iew.EXEC:rate           1.407669                       # Inst execution rate
system.switch_cpus_1.iew.EXEC:refs            3585607                       # number of memory reference insts executed
system.switch_cpus_1.iew.EXEC:stores          1637056                       # Number of stores executed
system.switch_cpus_1.iew.EXEC:swp                   0                       # number of swp insts executed
system.switch_cpus_1.iew.WB:consumers         8714412                       # num instructions consuming a value
system.switch_cpus_1.iew.WB:count            11896899                       # cumulative count of insts written-back
system.switch_cpus_1.iew.WB:fanout           0.766913                       # average fanout of values written-back
system.switch_cpus_1.iew.WB:penalized               0                       # number of instrctions required to write to 'other' IQ
system.switch_cpus_1.iew.WB:penalized_rate            0                       # fraction of instructions written-back that wrote to 'other' IQ
system.switch_cpus_1.iew.WB:producers         6683198                       # num instructions producing a value
system.switch_cpus_1.iew.WB:rate             1.396784                       # insts written-back per cycle
system.switch_cpus_1.iew.WB:sent             11906607                       # cumulative count of insts sent to commit
system.switch_cpus_1.iew.branchMispredicts       174441                       # Number of branch mispredicts detected at execute
system.switch_cpus_1.iew.iewBlockCycles         10738                       # Number of cycles IEW is blocking
system.switch_cpus_1.iew.iewDispLoadInsts      2066810                       # Number of dispatched load instructions
system.switch_cpus_1.iew.iewDispNonSpecInsts            0                       # Number of dispatched non-speculative instructions
system.switch_cpus_1.iew.iewDispSquashedInsts       396487                       # Number of squashed instructions skipped by dispatch
system.switch_cpus_1.iew.iewDispStoreInsts      1711678                       # Number of dispatched store instructions
system.switch_cpus_1.iew.iewDispatchedInsts     13529548                       # Number of instructions dispatched to IQ
system.switch_cpus_1.iew.iewExecLoadInsts      1948551                       # Number of load instructions executed
system.switch_cpus_1.iew.iewExecSquashedInsts       152950                       # Number of squashed instructions skipped in execute
system.switch_cpus_1.iew.iewExecutedInsts     11989607                       # Number of executed instructions
system.switch_cpus_1.iew.iewIQFullEvents           76                       # Number of times the IQ has become full, causing a stall
system.switch_cpus_1.iew.iewIdleCycles              0                       # Number of cycles IEW is idle
system.switch_cpus_1.iew.iewLSQFullEvents           15                       # Number of times the LSQ has become full, causing a stall
system.switch_cpus_1.iew.iewSquashCycles       516721                       # Number of cycles IEW is squashing
system.switch_cpus_1.iew.iewUnblockCycles          410                       # Number of cycles IEW is unblocking
system.switch_cpus_1.iew.lsq.thread.0.blockedLoads            0                       # Number of blocked loads due to partial load-store forwarding
system.switch_cpus_1.iew.lsq.thread.0.cacheBlocked        14780                       # Number of times an access to memory failed due to the cache being blocked
system.switch_cpus_1.iew.lsq.thread.0.forwLoads       145297                       # Number of loads that had data forwarded from stores
system.switch_cpus_1.iew.lsq.thread.0.ignoredResponses        10280                       # Number of memory responses ignored because the instruction is squashed
system.switch_cpus_1.iew.lsq.thread.0.invAddrLoads            0                       # Number of loads ignored due to an invalid address
system.switch_cpus_1.iew.lsq.thread.0.invAddrSwpfs            0                       # Number of software prefetches ignored due to an invalid address
system.switch_cpus_1.iew.lsq.thread.0.memOrderViolation        11525                       # Number of memory ordering violations
system.switch_cpus_1.iew.lsq.thread.0.rescheduledLoads            0                       # Number of loads that were rescheduled
system.switch_cpus_1.iew.lsq.thread.0.squashedLoads       460227                       # Number of loads squashed
system.switch_cpus_1.iew.lsq.thread.0.squashedStores       314256                       # Number of stores squashed
system.switch_cpus_1.iew.memOrderViolationEvents        11525                       # Number of memory order violations
system.switch_cpus_1.iew.predictedNotTakenIncorrect        27777                       # Number of branches that were predicted not taken incorrectly
system.switch_cpus_1.iew.predictedTakenIncorrect       146664                       # Number of branches that were predicted taken incorrectly
system.switch_cpus_1.ipc                     1.174074                       # IPC: Instructions Per Cycle
system.switch_cpus_1.ipc_total               1.174074                       # IPC: Total IPC of All Threads
system.switch_cpus_1.iq.ISSUE:FU_type_0::No_OpClass            0      0.00%      0.00% # Type of FU issued
system.switch_cpus_1.iq.ISSUE:FU_type_0::IntAlu      8518867     70.16%     70.16% # Type of FU issued
system.switch_cpus_1.iq.ISSUE:FU_type_0::IntMult            0      0.00%     70.16% # Type of FU issued
system.switch_cpus_1.iq.ISSUE:FU_type_0::IntDiv            0      0.00%     70.16% # Type of FU issued
system.switch_cpus_1.iq.ISSUE:FU_type_0::FloatAdd            0      0.00%     70.16% # Type of FU issued
system.switch_cpus_1.iq.ISSUE:FU_type_0::FloatCmp            0      0.00%     70.16% # Type of FU issued
system.switch_cpus_1.iq.ISSUE:FU_type_0::FloatCvt            0      0.00%     70.16% # Type of FU issued
system.switch_cpus_1.iq.ISSUE:FU_type_0::FloatMult            0      0.00%     70.16% # Type of FU issued
system.switch_cpus_1.iq.ISSUE:FU_type_0::FloatDiv            0      0.00%     70.16% # Type of FU issued
system.switch_cpus_1.iq.ISSUE:FU_type_0::FloatSqrt            0      0.00%     70.16% # Type of FU issued
system.switch_cpus_1.iq.ISSUE:FU_type_0::MemRead      1963190     16.17%     86.32% # Type of FU issued
system.switch_cpus_1.iq.ISSUE:FU_type_0::MemWrite      1660501     13.68%    100.00% # Type of FU issued
system.switch_cpus_1.iq.ISSUE:FU_type_0::IprAccess            0      0.00%    100.00% # Type of FU issued
system.switch_cpus_1.iq.ISSUE:FU_type_0::InstPrefetch            0      0.00%    100.00% # Type of FU issued
system.switch_cpus_1.iq.ISSUE:FU_type_0::total     12142558                       # Type of FU issued
system.switch_cpus_1.iq.ISSUE:fu_busy_cnt         5121                       # FU busy when requested
system.switch_cpus_1.iq.ISSUE:fu_busy_rate     0.000422                       # FU busy rate (busy events/executed inst)
system.switch_cpus_1.iq.ISSUE:fu_full::No_OpClass            0      0.00%      0.00% # attempts to use FU when none available
system.switch_cpus_1.iq.ISSUE:fu_full::IntAlu         4288     83.73%     83.73% # attempts to use FU when none available
system.switch_cpus_1.iq.ISSUE:fu_full::IntMult            0      0.00%     83.73% # attempts to use FU when none available
system.switch_cpus_1.iq.ISSUE:fu_full::IntDiv            0      0.00%     83.73% # attempts to use FU when none available
system.switch_cpus_1.iq.ISSUE:fu_full::FloatAdd            0      0.00%     83.73% # attempts to use FU when none available
system.switch_cpus_1.iq.ISSUE:fu_full::FloatCmp            0      0.00%     83.73% # attempts to use FU when none available
system.switch_cpus_1.iq.ISSUE:fu_full::FloatCvt            0      0.00%     83.73% # attempts to use FU when none available
system.switch_cpus_1.iq.ISSUE:fu_full::FloatMult            0      0.00%     83.73% # attempts to use FU when none available
system.switch_cpus_1.iq.ISSUE:fu_full::FloatDiv            0      0.00%     83.73% # attempts to use FU when none available
system.switch_cpus_1.iq.ISSUE:fu_full::FloatSqrt            0      0.00%     83.73% # attempts to use FU when none available
system.switch_cpus_1.iq.ISSUE:fu_full::MemRead          626     12.22%     95.96% # attempts to use FU when none available
system.switch_cpus_1.iq.ISSUE:fu_full::MemWrite          207      4.04%    100.00% # attempts to use FU when none available
system.switch_cpus_1.iq.ISSUE:fu_full::IprAccess            0      0.00%    100.00% # attempts to use FU when none available
system.switch_cpus_1.iq.ISSUE:fu_full::InstPrefetch            0      0.00%    100.00% # attempts to use FU when none available
system.switch_cpus_1.iq.ISSUE:issued_per_cycle::samples      8499181                       # Number of insts issued each cycle
system.switch_cpus_1.iq.ISSUE:issued_per_cycle::mean     1.428674                       # Number of insts issued each cycle
system.switch_cpus_1.iq.ISSUE:issued_per_cycle::stdev     1.318149                       # Number of insts issued each cycle
system.switch_cpus_1.iq.ISSUE:issued_per_cycle::underflows            0      0.00%      0.00% # Number of insts issued each cycle
system.switch_cpus_1.iq.ISSUE:issued_per_cycle::0      2386365     28.08%     28.08% # Number of insts issued each cycle
system.switch_cpus_1.iq.ISSUE:issued_per_cycle::1      2554737     30.06%     58.14% # Number of insts issued each cycle
system.switch_cpus_1.iq.ISSUE:issued_per_cycle::2      2323430     27.34%     85.47% # Number of insts issued each cycle
system.switch_cpus_1.iq.ISSUE:issued_per_cycle::3       201940      2.38%     87.85% # Number of insts issued each cycle
system.switch_cpus_1.iq.ISSUE:issued_per_cycle::4       865626     10.18%     98.03% # Number of insts issued each cycle
system.switch_cpus_1.iq.ISSUE:issued_per_cycle::5       135826      1.60%     99.63% # Number of insts issued each cycle
system.switch_cpus_1.iq.ISSUE:issued_per_cycle::6        25709      0.30%     99.93% # Number of insts issued each cycle
system.switch_cpus_1.iq.ISSUE:issued_per_cycle::7         5131      0.06%    100.00% # Number of insts issued each cycle
system.switch_cpus_1.iq.ISSUE:issued_per_cycle::8          417      0.00%    100.00% # Number of insts issued each cycle
system.switch_cpus_1.iq.ISSUE:issued_per_cycle::overflows            0      0.00%    100.00% # Number of insts issued each cycle
system.switch_cpus_1.iq.ISSUE:issued_per_cycle::min_value            0                       # Number of insts issued each cycle
system.switch_cpus_1.iq.ISSUE:issued_per_cycle::max_value            8                       # Number of insts issued each cycle
system.switch_cpus_1.iq.ISSUE:issued_per_cycle::total      8499181                       # Number of insts issued each cycle
system.switch_cpus_1.iq.ISSUE:rate           1.425627                       # Inst issue rate
system.switch_cpus_1.iq.iqInstsAdded         12644264                       # Number of instructions added to the IQ (excludes non-spec)
system.switch_cpus_1.iq.iqInstsIssued        12142558                       # Number of instructions issued
system.switch_cpus_1.iq.iqSquashedInstsExamined      2359770                       # Number of squashed instructions iterated over during squash; mainly for profiling
system.switch_cpus_1.iq.iqSquashedInstsIssued         1689                       # Number of squashed instructions issued
system.switch_cpus_1.iq.iqSquashedOperandsExamined       920338                       # Number of squashed operands that are examined and possibly removed from graph
system.switch_cpus_1.itb.data_accesses              0                       # DTB accesses
system.switch_cpus_1.itb.data_acv                   0                       # DTB access violations
system.switch_cpus_1.itb.data_hits                  0                       # DTB hits
system.switch_cpus_1.itb.data_misses                0                       # DTB misses
system.switch_cpus_1.itb.fetch_accesses       2283731                       # ITB accesses
system.switch_cpus_1.itb.fetch_acv                  0                       # ITB acv
system.switch_cpus_1.itb.fetch_hits           2283730                       # ITB hits
system.switch_cpus_1.itb.fetch_misses               1                       # ITB misses
system.switch_cpus_1.itb.read_accesses              0                       # DTB read accesses
system.switch_cpus_1.itb.read_acv                   0                       # DTB read access violations
system.switch_cpus_1.itb.read_hits                  0                       # DTB read hits
system.switch_cpus_1.itb.read_misses                0                       # DTB read misses
system.switch_cpus_1.itb.write_accesses             0                       # DTB write accesses
system.switch_cpus_1.itb.write_acv                  0                       # DTB write access violations
system.switch_cpus_1.itb.write_hits                 0                       # DTB write hits
system.switch_cpus_1.itb.write_misses               0                       # DTB write misses
system.switch_cpus_1.memDep0.conflictingLoads       608161                       # Number of conflicting loads.
system.switch_cpus_1.memDep0.conflictingStores       275420                       # Number of conflicting stores.
system.switch_cpus_1.memDep0.insertedLoads      2066810                       # Number of loads inserted to the mem dependence unit.
system.switch_cpus_1.memDep0.insertedStores      1711678                       # Number of stores inserted to the mem dependence unit.
system.switch_cpus_1.numCycles                8517348                       # number of cpu cycles simulated
system.switch_cpus_1.rename.RENAME:BlockCycles        71269                       # Number of cycles rename is blocking
system.switch_cpus_1.rename.RENAME:CommittedMaps      6978824                       # Number of HB maps that are committed
system.switch_cpus_1.rename.RENAME:IQFullEvents          264                       # Number of times rename has blocked due to IQ full
system.switch_cpus_1.rename.RENAME:IdleCycles      4644450                       # Number of cycles rename is idle
system.switch_cpus_1.rename.RENAME:LSQFullEvents        29315                       # Number of times rename has blocked due to LSQ full
system.switch_cpus_1.rename.RENAME:ROBFullEvents         2998                       # Number of times rename has blocked due to ROB full
system.switch_cpus_1.rename.RENAME:RenameLookups     19201826                       # Number of register rename lookups that rename has made
system.switch_cpus_1.rename.RENAME:RenamedInsts     14459027                       # Number of instructions processed by rename
system.switch_cpus_1.rename.RENAME:RenamedOperands      9472253                       # Number of destination operands rename has renamed
system.switch_cpus_1.rename.RENAME:RunCycles      3234294                       # Number of cycles rename is running
system.switch_cpus_1.rename.RENAME:SquashCycles       516721                       # Number of cycles rename is squashing
system.switch_cpus_1.rename.RENAME:UnblockCycles        32446                       # Number of cycles rename is unblocking
system.switch_cpus_1.rename.RENAME:UndoneMaps      2493416                       # Number of HB maps that are undone due to squashing
system.switch_cpus_1.rename.RENAME:serializeStallCycles            0                       # count of cycles rename stalled for serializing inst
system.switch_cpus_1.rename.RENAME:serializingInsts            0                       # count of serializing insts renamed
system.switch_cpus_1.rename.RENAME:skidInsts        61213                       # count of insts added to the skid buffer
system.switch_cpus_1.rename.RENAME:tempSerializingInsts            0                       # count of temporary serializing insts renamed
system.switch_cpus_1.timesIdled                   944                       # Number of times that the entire CPU went into an idle state and unscheduled itself

---------- End Simulation Statistics   ----------
