
---------- Begin Simulation Statistics ----------
host_inst_rate                                 588271                       # Simulator instruction rate (inst/s)
host_mem_usage                                 390568                       # Number of bytes of host memory used
host_seconds                                    34.00                       # Real time elapsed on the host
host_tick_rate                              537261047                       # Simulator tick rate (ticks/s)
sim_freq                                 1000000000000                       # Frequency of simulated ticks
sim_insts                                    20000003                       # Number of instructions simulated
sim_seconds                                  0.018267                       # Number of seconds simulated
sim_ticks                                 18266845500                       # Number of ticks simulated
system.cpu.dcache.ReadReq_accesses            3327213                       # number of ReadReq accesses(hits+misses)
system.cpu.dcache.ReadReq_avg_miss_latency 28039.969413                       # average ReadReq miss latency
system.cpu.dcache.ReadReq_avg_mshr_miss_latency 22515.117634                       # average ReadReq mshr miss latency
system.cpu.dcache.ReadReq_hits                3223246                       # number of ReadReq hits
system.cpu.dcache.ReadReq_miss_latency     2915231500                       # number of ReadReq miss cycles
system.cpu.dcache.ReadReq_miss_rate          0.031247                       # miss rate for ReadReq accesses
system.cpu.dcache.ReadReq_misses               103967                       # number of ReadReq misses
system.cpu.dcache.ReadReq_mshr_hits             19893                       # number of ReadReq MSHR hits
system.cpu.dcache.ReadReq_mshr_miss_latency   1892936000                       # number of ReadReq MSHR miss cycles
system.cpu.dcache.ReadReq_mshr_miss_rate     0.025269                       # mshr miss rate for ReadReq accesses
system.cpu.dcache.ReadReq_mshr_misses           84074                       # number of ReadReq MSHR misses
system.cpu.dcache.WriteReq_accesses           2822830                       # number of WriteReq accesses(hits+misses)
system.cpu.dcache.WriteReq_avg_miss_latency 53679.172636                       # average WriteReq miss latency
system.cpu.dcache.WriteReq_avg_mshr_miss_latency 57626.853377                       # average WriteReq mshr miss latency
system.cpu.dcache.WriteReq_hits               2817246                       # number of WriteReq hits
system.cpu.dcache.WriteReq_miss_latency     299744500                       # number of WriteReq miss cycles
system.cpu.dcache.WriteReq_miss_rate         0.001978                       # miss rate for WriteReq accesses
system.cpu.dcache.WriteReq_misses                5584                       # number of WriteReq misses
system.cpu.dcache.WriteReq_mshr_hits             1941                       # number of WriteReq MSHR hits
system.cpu.dcache.WriteReq_mshr_miss_latency    209877000                       # number of WriteReq MSHR miss cycles
system.cpu.dcache.WriteReq_mshr_miss_rate     0.001290                       # mshr miss rate for WriteReq accesses
system.cpu.dcache.WriteReq_mshr_misses           3642                       # number of WriteReq MSHR misses
system.cpu.dcache.avg_blocked_cycles::no_mshrs     no_value                       # average number of cycles each access was blocked
system.cpu.dcache.avg_blocked_cycles::no_targets 26943.591102                       # average number of cycles each access was blocked
system.cpu.dcache.avg_refs                  69.447732                       # Average number of references to valid blocks.
system.cpu.dcache.blocked::no_mshrs                 0                       # number of cycles access was blocked
system.cpu.dcache.blocked::no_targets            3776                       # number of cycles access was blocked
system.cpu.dcache.blocked_cycles::no_mshrs            0                       # number of cycles access was blocked
system.cpu.dcache.blocked_cycles::no_targets    101739000                       # number of cycles access was blocked
system.cpu.dcache.cache_copies                      0                       # number of cache copies performed
system.cpu.dcache.demand_accesses             6150043                       # number of demand (read+write) accesses
system.cpu.dcache.demand_avg_miss_latency 29346.843023                       # average overall miss latency
system.cpu.dcache.demand_avg_mshr_miss_latency 23972.969584                       # average overall mshr miss latency
system.cpu.dcache.demand_hits                 6040492                       # number of demand (read+write) hits
system.cpu.dcache.demand_miss_latency      3214976000                       # number of demand (read+write) miss cycles
system.cpu.dcache.demand_miss_rate           0.017813                       # miss rate for demand accesses
system.cpu.dcache.demand_misses                109551                       # number of demand (read+write) misses
system.cpu.dcache.demand_mshr_hits              21834                       # number of demand (read+write) MSHR hits
system.cpu.dcache.demand_mshr_miss_latency   2102813000                       # number of demand (read+write) MSHR miss cycles
system.cpu.dcache.demand_mshr_miss_rate      0.014263                       # mshr miss rate for demand accesses
system.cpu.dcache.demand_mshr_misses            87716                       # number of demand (read+write) MSHR misses
system.cpu.dcache.fast_writes                       0                       # number of fast writes performed
system.cpu.dcache.mshr_cap_events                   0                       # number of times MSHR cap was activated
system.cpu.dcache.no_allocate_misses                0                       # Number of misses that were no-allocate
system.cpu.dcache.occ_%::0                   0.980835                       # Average percentage of cache occupancy
system.cpu.dcache.occ_blocks::0           1004.375080                       # Average occupied blocks per context
system.cpu.dcache.overall_accesses            6150043                       # number of overall (read+write) accesses
system.cpu.dcache.overall_avg_miss_latency 29346.843023                       # average overall miss latency
system.cpu.dcache.overall_avg_mshr_miss_latency 23972.969584                       # average overall mshr miss latency
system.cpu.dcache.overall_avg_mshr_uncacheable_latency     no_value                       # average overall mshr uncacheable latency
system.cpu.dcache.overall_hits                6040492                       # number of overall hits
system.cpu.dcache.overall_miss_latency     3214976000                       # number of overall miss cycles
system.cpu.dcache.overall_miss_rate          0.017813                       # miss rate for overall accesses
system.cpu.dcache.overall_misses               109551                       # number of overall misses
system.cpu.dcache.overall_mshr_hits             21834                       # number of overall MSHR hits
system.cpu.dcache.overall_mshr_miss_latency   2102813000                       # number of overall MSHR miss cycles
system.cpu.dcache.overall_mshr_miss_rate     0.014263                       # mshr miss rate for overall accesses
system.cpu.dcache.overall_mshr_misses           87716                       # number of overall MSHR misses
system.cpu.dcache.overall_mshr_uncacheable_latency            0                       # number of overall MSHR uncacheable cycles
system.cpu.dcache.overall_mshr_uncacheable_misses            0                       # number of overall MSHR uncacheable misses
system.cpu.dcache.prefetch_accuracy          no_value                       # ratio of good prefetches to total prefetches
system.cpu.dcache.prefetch_hits                     0                       # number of prefetched blocks that were accessed
system.cpu.dcache.replacements                  85970                       # number of replacements
system.cpu.dcache.sampled_refs                  86994                       # Sample count of references to valid blocks.
system.cpu.dcache.soft_prefetch_mshr_full            0                       # number of mshr full events for SW prefetching instrutions
system.cpu.dcache.tagsinuse               1004.375080                       # Cycle average of tags in use
system.cpu.dcache.total_refs                  6041536                       # Total number of references to valid blocks.
system.cpu.dcache.warmup_cycle           502143630000                       # Cycle when the warmup percentage was hit.
system.cpu.dcache.writebacks                     3599                       # number of writebacks
system.cpu.dtb.data_accesses                        1                       # DTB accesses
system.cpu.dtb.data_acv                             0                       # DTB access violations
system.cpu.dtb.data_hits                            1                       # DTB hits
system.cpu.dtb.data_misses                          0                       # DTB misses
system.cpu.dtb.fetch_accesses                       0                       # ITB accesses
system.cpu.dtb.fetch_acv                            0                       # ITB acv
system.cpu.dtb.fetch_hits                           0                       # ITB hits
system.cpu.dtb.fetch_misses                         0                       # ITB misses
system.cpu.dtb.read_accesses                        0                       # DTB read accesses
system.cpu.dtb.read_acv                             0                       # DTB read access violations
system.cpu.dtb.read_hits                            0                       # DTB read hits
system.cpu.dtb.read_misses                          0                       # DTB read misses
system.cpu.dtb.write_accesses                       1                       # DTB write accesses
system.cpu.dtb.write_acv                            0                       # DTB write access violations
system.cpu.dtb.write_hits                           1                       # DTB write hits
system.cpu.dtb.write_misses                         0                       # DTB write misses
system.cpu.icache.ReadReq_accesses           12283784                       # number of ReadReq accesses(hits+misses)
system.cpu.icache.ReadReq_avg_miss_latency 47041.666667                       # average ReadReq miss latency
system.cpu.icache.ReadReq_avg_mshr_miss_latency 56928.571429                       # average ReadReq mshr miss latency
system.cpu.icache.ReadReq_hits               12283772                       # number of ReadReq hits
system.cpu.icache.ReadReq_miss_latency         564500                       # number of ReadReq miss cycles
system.cpu.icache.ReadReq_miss_rate          0.000001                       # miss rate for ReadReq accesses
system.cpu.icache.ReadReq_misses                   12                       # number of ReadReq misses
system.cpu.icache.ReadReq_mshr_hits                 4                       # number of ReadReq MSHR hits
system.cpu.icache.ReadReq_mshr_miss_latency       398500                       # number of ReadReq MSHR miss cycles
system.cpu.icache.ReadReq_mshr_miss_rate     0.000001                       # mshr miss rate for ReadReq accesses
system.cpu.icache.ReadReq_mshr_misses               7                       # number of ReadReq MSHR misses
system.cpu.icache.avg_blocked_cycles::no_mshrs     no_value                       # average number of cycles each access was blocked
system.cpu.icache.avg_blocked_cycles::no_targets        22000                       # average number of cycles each access was blocked
system.cpu.icache.avg_refs               1535471.500000                       # Average number of references to valid blocks.
system.cpu.icache.blocked::no_mshrs                 0                       # number of cycles access was blocked
system.cpu.icache.blocked::no_targets               1                       # number of cycles access was blocked
system.cpu.icache.blocked_cycles::no_mshrs            0                       # number of cycles access was blocked
system.cpu.icache.blocked_cycles::no_targets        22000                       # number of cycles access was blocked
system.cpu.icache.cache_copies                      0                       # number of cache copies performed
system.cpu.icache.demand_accesses            12283784                       # number of demand (read+write) accesses
system.cpu.icache.demand_avg_miss_latency 47041.666667                       # average overall miss latency
system.cpu.icache.demand_avg_mshr_miss_latency 56928.571429                       # average overall mshr miss latency
system.cpu.icache.demand_hits                12283772                       # number of demand (read+write) hits
system.cpu.icache.demand_miss_latency          564500                       # number of demand (read+write) miss cycles
system.cpu.icache.demand_miss_rate           0.000001                       # miss rate for demand accesses
system.cpu.icache.demand_misses                    12                       # number of demand (read+write) misses
system.cpu.icache.demand_mshr_hits                  4                       # number of demand (read+write) MSHR hits
system.cpu.icache.demand_mshr_miss_latency       398500                       # number of demand (read+write) MSHR miss cycles
system.cpu.icache.demand_mshr_miss_rate      0.000001                       # mshr miss rate for demand accesses
system.cpu.icache.demand_mshr_misses                7                       # number of demand (read+write) MSHR misses
system.cpu.icache.fast_writes                       0                       # number of fast writes performed
system.cpu.icache.mshr_cap_events                   0                       # number of times MSHR cap was activated
system.cpu.icache.no_allocate_misses                0                       # Number of misses that were no-allocate
system.cpu.icache.occ_%::0                   0.012611                       # Average percentage of cache occupancy
system.cpu.icache.occ_blocks::0              6.456670                       # Average occupied blocks per context
system.cpu.icache.overall_accesses           12283784                       # number of overall (read+write) accesses
system.cpu.icache.overall_avg_miss_latency 47041.666667                       # average overall miss latency
system.cpu.icache.overall_avg_mshr_miss_latency 56928.571429                       # average overall mshr miss latency
system.cpu.icache.overall_avg_mshr_uncacheable_latency     no_value                       # average overall mshr uncacheable latency
system.cpu.icache.overall_hits               12283772                       # number of overall hits
system.cpu.icache.overall_miss_latency         564500                       # number of overall miss cycles
system.cpu.icache.overall_miss_rate          0.000001                       # miss rate for overall accesses
system.cpu.icache.overall_misses                   12                       # number of overall misses
system.cpu.icache.overall_mshr_hits                 4                       # number of overall MSHR hits
system.cpu.icache.overall_mshr_miss_latency       398500                       # number of overall MSHR miss cycles
system.cpu.icache.overall_mshr_miss_rate     0.000001                       # mshr miss rate for overall accesses
system.cpu.icache.overall_mshr_misses               7                       # number of overall MSHR misses
system.cpu.icache.overall_mshr_uncacheable_latency            0                       # number of overall MSHR uncacheable cycles
system.cpu.icache.overall_mshr_uncacheable_misses            0                       # number of overall MSHR uncacheable misses
system.cpu.icache.prefetch_accuracy          no_value                       # ratio of good prefetches to total prefetches
system.cpu.icache.prefetch_hits                     0                       # number of prefetched blocks that were accessed
system.cpu.icache.replacements                      0                       # number of replacements
system.cpu.icache.sampled_refs                      8                       # Sample count of references to valid blocks.
system.cpu.icache.soft_prefetch_mshr_full            0                       # number of mshr full events for SW prefetching instrutions
system.cpu.icache.tagsinuse                  6.456670                       # Cycle average of tags in use
system.cpu.icache.total_refs                 12283772                       # Total number of references to valid blocks.
system.cpu.icache.warmup_cycle                      0                       # Cycle when the warmup percentage was hit.
system.cpu.icache.writebacks                        0                       # number of writebacks
system.cpu.idle_fraction                            0                       # Percentage of idle cycles
system.cpu.itb.data_accesses                        0                       # DTB accesses
system.cpu.itb.data_acv                             0                       # DTB access violations
system.cpu.itb.data_hits                            0                       # DTB hits
system.cpu.itb.data_misses                          0                       # DTB misses
system.cpu.itb.fetch_accesses                       2                       # ITB accesses
system.cpu.itb.fetch_acv                            0                       # ITB acv
system.cpu.itb.fetch_hits                           2                       # ITB hits
system.cpu.itb.fetch_misses                         0                       # ITB misses
system.cpu.itb.read_accesses                        0                       # DTB read accesses
system.cpu.itb.read_acv                             0                       # DTB read access violations
system.cpu.itb.read_hits                            0                       # DTB read hits
system.cpu.itb.read_misses                          0                       # DTB read misses
system.cpu.itb.write_accesses                       0                       # DTB write accesses
system.cpu.itb.write_acv                            0                       # DTB write access violations
system.cpu.itb.write_hits                           0                       # DTB write hits
system.cpu.itb.write_misses                         0                       # DTB write misses
system.cpu.not_idle_fraction                        1                       # Percentage of non-idle cycles
system.cpu.numCycles                                2                       # number of cpu cycles simulated
system.cpu.num_insts                                2                       # Number of instructions executed
system.cpu.num_refs                                 1                       # Number of memory references
system.cpu.workload.PROG:num_syscalls               0                       # Number of system calls
system.l2.HardPFReq_avg_mshr_miss_latency 47943.694553                       # average HardPFReq mshr miss latency
system.l2.HardPFReq_mshr_miss_latency       233246074                       # number of HardPFReq MSHR miss cycles
system.l2.HardPFReq_mshr_miss_rate                inf                       # mshr miss rate for HardPFReq accesses
system.l2.HardPFReq_mshr_misses                  4865                       # number of HardPFReq MSHR misses
system.l2.ReadExReq_accesses                     2920                       # number of ReadExReq accesses(hits+misses)
system.l2.ReadExReq_avg_miss_latency     56587.842466                       # average ReadExReq miss latency
system.l2.ReadExReq_avg_mshr_miss_latency 40643.713601                       # average ReadExReq mshr miss latency
system.l2.ReadExReq_miss_latency            165236500                       # number of ReadExReq miss cycles
system.l2.ReadExReq_miss_rate                       1                       # miss rate for ReadExReq accesses
system.l2.ReadExReq_misses                       2920                       # number of ReadExReq misses
system.l2.ReadExReq_mshr_miss_latency       118639000                       # number of ReadExReq MSHR miss cycles
system.l2.ReadExReq_mshr_miss_rate           0.999658                       # mshr miss rate for ReadExReq accesses
system.l2.ReadExReq_mshr_misses                  2919                       # number of ReadExReq MSHR misses
system.l2.ReadReq_accesses                      84082                       # number of ReadReq accesses(hits+misses)
system.l2.ReadReq_avg_miss_latency       58038.230656                       # average ReadReq miss latency
system.l2.ReadReq_avg_mshr_miss_latency  42193.252938                       # average ReadReq mshr miss latency
system.l2.ReadReq_hits                          64425                       # number of ReadReq hits
system.l2.ReadReq_miss_latency             1140857500                       # number of ReadReq miss cycles
system.l2.ReadReq_miss_rate                  0.233784                       # miss rate for ReadReq accesses
system.l2.ReadReq_misses                        19657                       # number of ReadReq misses
system.l2.ReadReq_mshr_hits                         3                       # number of ReadReq MSHR hits
system.l2.ReadReq_mshr_miss_latency         829224000                       # number of ReadReq MSHR miss cycles
system.l2.ReadReq_mshr_miss_rate             0.233736                       # mshr miss rate for ReadReq accesses
system.l2.ReadReq_mshr_misses                   19653                       # number of ReadReq MSHR misses
system.l2.UpgradeReq_accesses                     723                       # number of UpgradeReq accesses(hits+misses)
system.l2.UpgradeReq_avg_miss_latency    56533.195021                       # average UpgradeReq miss latency
system.l2.UpgradeReq_avg_mshr_miss_latency 40564.315353                       # average UpgradeReq mshr miss latency
system.l2.UpgradeReq_miss_latency            40873500                       # number of UpgradeReq miss cycles
system.l2.UpgradeReq_miss_rate                      1                       # miss rate for UpgradeReq accesses
system.l2.UpgradeReq_misses                       723                       # number of UpgradeReq misses
system.l2.UpgradeReq_mshr_miss_latency       29328000                       # number of UpgradeReq MSHR miss cycles
system.l2.UpgradeReq_mshr_miss_rate                 1                       # mshr miss rate for UpgradeReq accesses
system.l2.UpgradeReq_mshr_misses                  723                       # number of UpgradeReq MSHR misses
system.l2.Writeback_accesses                     3599                       # number of Writeback accesses(hits+misses)
system.l2.Writeback_hits                         3599                       # number of Writeback hits
system.l2.avg_blocked_cycles::no_mshrs       no_value                       # average number of cycles each access was blocked
system.l2.avg_blocked_cycles::no_targets     no_value                       # average number of cycles each access was blocked
system.l2.avg_refs                           2.753572                       # Average number of references to valid blocks.
system.l2.blocked::no_mshrs                         0                       # number of cycles access was blocked
system.l2.blocked::no_targets                       0                       # number of cycles access was blocked
system.l2.blocked_cycles::no_mshrs                  0                       # number of cycles access was blocked
system.l2.blocked_cycles::no_targets                0                       # number of cycles access was blocked
system.l2.cache_copies                              0                       # number of cache copies performed
system.l2.demand_accesses                       87002                       # number of demand (read+write) accesses
system.l2.demand_avg_miss_latency        57850.644461                       # average overall miss latency
system.l2.demand_avg_mshr_miss_latency   41992.867269                       # average overall mshr miss latency
system.l2.demand_hits                           64425                       # number of demand (read+write) hits
system.l2.demand_miss_latency              1306094000                       # number of demand (read+write) miss cycles
system.l2.demand_miss_rate                   0.259500                       # miss rate for demand accesses
system.l2.demand_misses                         22577                       # number of demand (read+write) misses
system.l2.demand_mshr_hits                          3                       # number of demand (read+write) MSHR hits
system.l2.demand_mshr_miss_latency          947863000                       # number of demand (read+write) MSHR miss cycles
system.l2.demand_mshr_miss_rate              0.259442                       # mshr miss rate for demand accesses
system.l2.demand_mshr_misses                    22572                       # number of demand (read+write) MSHR misses
system.l2.fast_writes                               0                       # number of fast writes performed
system.l2.mshr_cap_events                           0                       # number of times MSHR cap was activated
system.l2.no_allocate_misses                        0                       # Number of misses that were no-allocate
system.l2.occ_%::0                           0.607624                       # Average percentage of cache occupancy
system.l2.occ_%::1                           0.000116                       # Average percentage of cache occupancy
system.l2.occ_blocks::0                   9955.309358                       # Average occupied blocks per context
system.l2.occ_blocks::1                      1.899603                       # Average occupied blocks per context
system.l2.overall_accesses                      87002                       # number of overall (read+write) accesses
system.l2.overall_avg_miss_latency       57850.644461                       # average overall miss latency
system.l2.overall_avg_mshr_miss_latency  43048.040019                       # average overall mshr miss latency
system.l2.overall_avg_mshr_uncacheable_latency     no_value                       # average overall mshr uncacheable latency
system.l2.overall_hits                          64425                       # number of overall hits
system.l2.overall_miss_latency             1306094000                       # number of overall miss cycles
system.l2.overall_miss_rate                  0.259500                       # miss rate for overall accesses
system.l2.overall_misses                        22577                       # number of overall misses
system.l2.overall_mshr_hits                         3                       # number of overall MSHR hits
system.l2.overall_mshr_miss_latency        1181109074                       # number of overall MSHR miss cycles
system.l2.overall_mshr_miss_rate             0.315361                       # mshr miss rate for overall accesses
system.l2.overall_mshr_misses                   27437                       # number of overall MSHR misses
system.l2.overall_mshr_uncacheable_latency            0                       # number of overall MSHR uncacheable cycles
system.l2.overall_mshr_uncacheable_misses            0                       # number of overall MSHR uncacheable misses
system.l2.prefetch_accuracy                  0.865982                       # ratio of good prefetches to total prefetches
system.l2.prefetch_hits                          4213                       # number of prefetched blocks that were accessed
system.l2.prefetcher.num_hwpf_already_in_prefetcher           79                       # number of hwpf that were already in the prefetch queue
system.l2.prefetcher.num_hwpf_evicted               0                       # number of hwpf removed due to no buffer left
system.l2.prefetcher.num_hwpf_identified         4944                       # number of hwpf identified
system.l2.prefetcher.num_hwpf_issued             4865                       # number of hwpf issued
system.l2.prefetcher.num_hwpf_removed_MSHR_hit            0                       # number of hwpf removed because MSHR allocated
system.l2.prefetcher.num_hwpf_span_page             0                       # number of hwpf spanning a virtual page
system.l2.prefetcher.num_hwpf_squashed_from_miss            0                       # number of hwpf that got squashed due to a miss aborting calculation time
system.l2.replacements                           9583                       # number of replacements
system.l2.sampled_refs                          24494                       # Sample count of references to valid blocks.
system.l2.soft_prefetch_mshr_full                   0                       # number of mshr full events for SW prefetching instrutions
system.l2.tagsinuse                       9957.208961                       # Cycle average of tags in use
system.l2.total_refs                            67446                       # Total number of references to valid blocks.
system.l2.warmup_cycle                              0                       # Cycle when the warmup percentage was hit.
system.l2.writebacks                             1284                       # number of writebacks
system.switch_cpus.dtb.data_accesses          2972120                       # DTB accesses
system.switch_cpus.dtb.data_acv                     0                       # DTB access violations
system.switch_cpus.dtb.data_hits              2969257                       # DTB hits
system.switch_cpus.dtb.data_misses               2863                       # DTB misses
system.switch_cpus.dtb.fetch_accesses               0                       # ITB accesses
system.switch_cpus.dtb.fetch_acv                    0                       # ITB acv
system.switch_cpus.dtb.fetch_hits                   0                       # ITB hits
system.switch_cpus.dtb.fetch_misses                 0                       # ITB misses
system.switch_cpus.dtb.read_accesses          1546660                       # DTB read accesses
system.switch_cpus.dtb.read_acv                     0                       # DTB read access violations
system.switch_cpus.dtb.read_hits              1543848                       # DTB read hits
system.switch_cpus.dtb.read_misses               2812                       # DTB read misses
system.switch_cpus.dtb.write_accesses         1425460                       # DTB write accesses
system.switch_cpus.dtb.write_acv                    0                       # DTB write access violations
system.switch_cpus.dtb.write_hits             1425409                       # DTB write hits
system.switch_cpus.dtb.write_misses                51                       # DTB write misses
system.switch_cpus.idle_fraction                    1                       # Percentage of idle cycles
system.switch_cpus.itb.data_accesses                0                       # DTB accesses
system.switch_cpus.itb.data_acv                     0                       # DTB access violations
system.switch_cpus.itb.data_hits                    0                       # DTB hits
system.switch_cpus.itb.data_misses                  0                       # DTB misses
system.switch_cpus.itb.fetch_accesses        10002866                       # ITB accesses
system.switch_cpus.itb.fetch_acv                    0                       # ITB acv
system.switch_cpus.itb.fetch_hits            10002865                       # ITB hits
system.switch_cpus.itb.fetch_misses                 1                       # ITB misses
system.switch_cpus.itb.read_accesses                0                       # DTB read accesses
system.switch_cpus.itb.read_acv                     0                       # DTB read access violations
system.switch_cpus.itb.read_hits                    0                       # DTB read hits
system.switch_cpus.itb.read_misses                  0                       # DTB read misses
system.switch_cpus.itb.write_accesses               0                       # DTB write accesses
system.switch_cpus.itb.write_acv                    0                       # DTB write access violations
system.switch_cpus.itb.write_hits                   0                       # DTB write hits
system.switch_cpus.itb.write_misses                 0                       # DTB write misses
system.switch_cpus.not_idle_fraction                0                       # Percentage of non-idle cycles
system.switch_cpus.numCycles                 28024768                       # number of cpu cycles simulated
system.switch_cpus.num_insts                 10000001                       # Number of instructions executed
system.switch_cpus.num_refs                   2972120                       # Number of memory references
system.switch_cpus_1.BPredUnit.BTBCorrect            0                       # Number of correct BTB predictions (this stat may not work properly.
system.switch_cpus_1.BPredUnit.BTBHits        2080787                       # Number of BTB hits
system.switch_cpus_1.BPredUnit.BTBLookups      2142515                       # Number of BTB lookups
system.switch_cpus_1.BPredUnit.RASInCorrect            0                       # Number of incorrect RAS predictions.
system.switch_cpus_1.BPredUnit.condIncorrect       159070                       # Number of conditional branches incorrect
system.switch_cpus_1.BPredUnit.condPredicted      2190503                       # Number of conditional branches predicted
system.switch_cpus_1.BPredUnit.lookups        2349417                       # Number of BP lookups
system.switch_cpus_1.BPredUnit.usedRAS              0                       # Number of times the RAS was used to get a target.
system.switch_cpus_1.commit.COM:branches      1623752                       # Number of branches committed
system.switch_cpus_1.commit.COM:bw_lim_events        94782                       # number cycles where commit BW limit reached
system.switch_cpus_1.commit.COM:bw_limited            0                       # number of insts not committed due to BW limits
system.switch_cpus_1.commit.COM:committed_per_cycle::samples      7973776                       # Number of insts commited each cycle
system.switch_cpus_1.commit.COM:committed_per_cycle::mean     1.304088                       # Number of insts commited each cycle
system.switch_cpus_1.commit.COM:committed_per_cycle::stdev     1.769943                       # Number of insts commited each cycle
system.switch_cpus_1.commit.COM:committed_per_cycle::underflows            0      0.00%      0.00% # Number of insts commited each cycle
system.switch_cpus_1.commit.COM:committed_per_cycle::0      3402360     42.67%     42.67% # Number of insts commited each cycle
system.switch_cpus_1.commit.COM:committed_per_cycle::1      2838682     35.60%     78.27% # Number of insts commited each cycle
system.switch_cpus_1.commit.COM:committed_per_cycle::2       166292      2.09%     80.36% # Number of insts commited each cycle
system.switch_cpus_1.commit.COM:committed_per_cycle::3        74365      0.93%     81.29% # Number of insts commited each cycle
system.switch_cpus_1.commit.COM:committed_per_cycle::4       753878      9.45%     90.74% # Number of insts commited each cycle
system.switch_cpus_1.commit.COM:committed_per_cycle::5       633684      7.95%     98.69% # Number of insts commited each cycle
system.switch_cpus_1.commit.COM:committed_per_cycle::6         6172      0.08%     98.77% # Number of insts commited each cycle
system.switch_cpus_1.commit.COM:committed_per_cycle::7         3561      0.04%     98.81% # Number of insts commited each cycle
system.switch_cpus_1.commit.COM:committed_per_cycle::8        94782      1.19%    100.00% # Number of insts commited each cycle
system.switch_cpus_1.commit.COM:committed_per_cycle::overflows            0      0.00%    100.00% # Number of insts commited each cycle
system.switch_cpus_1.commit.COM:committed_per_cycle::min_value            0                       # Number of insts commited each cycle
system.switch_cpus_1.commit.COM:committed_per_cycle::max_value            8                       # Number of insts commited each cycle
system.switch_cpus_1.commit.COM:committed_per_cycle::total      7973776                       # Number of insts commited each cycle
system.switch_cpus_1.commit.COM:count        10398508                       # Number of instructions committed
system.switch_cpus_1.commit.COM:loads         1606582                       # Number of loads committed
system.switch_cpus_1.commit.COM:membars             0                       # Number of memory barriers committed
system.switch_cpus_1.commit.COM:refs          3004003                       # Number of memory references committed
system.switch_cpus_1.commit.COM:swp_count            0                       # Number of s/w prefetches committed
system.switch_cpus_1.commit.branchMispredicts       159067                       # The number of times a branch was mispredicted
system.switch_cpus_1.commit.commitCommittedInsts     10398508                       # The number of committed instructions
system.switch_cpus_1.commit.commitSquashedInsts      3031674                       # The number of squashed insts skipped by commit
system.switch_cpus_1.committedInsts          10000000                       # Number of Instructions Simulated
system.switch_cpus_1.committedInsts_total     10000000                       # Number of Instructions Simulated
system.switch_cpus_1.cpi                     0.850892                       # CPI: Cycles Per Instruction
system.switch_cpus_1.cpi_total               0.850892                       # CPI: Total CPI of All Threads
system.switch_cpus_1.decode.DECODE:BlockedCycles       105715                       # Number of cycles decode is blocked
system.switch_cpus_1.decode.DECODE:BranchMispred          419                       # Number of times decode detected a branch misprediction
system.switch_cpus_1.decode.DECODE:BranchResolved       153617                       # Number of times decode resolved a branch
system.switch_cpus_1.decode.DECODE:DecodedInsts     14648079                       # Number of instructions handled by decode
system.switch_cpus_1.decode.DECODE:IdleCycles      4584773                       # Number of cycles decode is idle
system.switch_cpus_1.decode.DECODE:RunCycles      3278760                       # Number of cycles decode is running
system.switch_cpus_1.decode.DECODE:SquashCycles       515141                       # Number of cycles decode is squashing
system.switch_cpus_1.decode.DECODE:UnblockCycles         4527                       # Number of cycles decode is unblocking
system.switch_cpus_1.dtb.data_accesses        3586383                       # DTB accesses
system.switch_cpus_1.dtb.data_acv                   0                       # DTB access violations
system.switch_cpus_1.dtb.data_hits            3579763                       # DTB hits
system.switch_cpus_1.dtb.data_misses             6620                       # DTB misses
system.switch_cpus_1.dtb.fetch_accesses             0                       # ITB accesses
system.switch_cpus_1.dtb.fetch_acv                  0                       # ITB acv
system.switch_cpus_1.dtb.fetch_hits                 0                       # ITB hits
system.switch_cpus_1.dtb.fetch_misses               0                       # ITB misses
system.switch_cpus_1.dtb.read_accesses        1949294                       # DTB read accesses
system.switch_cpus_1.dtb.read_acv                   0                       # DTB read access violations
system.switch_cpus_1.dtb.read_hits            1942940                       # DTB read hits
system.switch_cpus_1.dtb.read_misses             6354                       # DTB read misses
system.switch_cpus_1.dtb.write_accesses       1637089                       # DTB write accesses
system.switch_cpus_1.dtb.write_acv                  0                       # DTB write access violations
system.switch_cpus_1.dtb.write_hits           1636823                       # DTB write hits
system.switch_cpus_1.dtb.write_misses             266                       # DTB write misses
system.switch_cpus_1.fetch.Branches           2349417                       # Number of branches that fetch encountered
system.switch_cpus_1.fetch.CacheLines         2280917                       # Number of cache lines fetched
system.switch_cpus_1.fetch.Cycles             5617098                       # Number of cycles fetch has run and was not squashing or blocked
system.switch_cpus_1.fetch.IcacheSquashes        42458                       # Number of outstanding Icache misses that were squashed
system.switch_cpus_1.fetch.Insts             14946639                       # Number of instructions fetch has processed
system.switch_cpus_1.fetch.SquashCycles        187439                       # Number of cycles fetch has spent squashing
system.switch_cpus_1.fetch.branchRate        0.276112                       # Number of branch fetches per cycle
system.switch_cpus_1.fetch.icacheStallCycles      2280917                       # Number of cycles fetch is stalled on an Icache miss
system.switch_cpus_1.fetch.predictedBranches      2080787                       # Number of branches that fetch has predicted taken
system.switch_cpus_1.fetch.rate              1.756584                       # Number of inst fetches per cycle
system.switch_cpus_1.fetch.rateDist::samples      8488917                       # Number of instructions fetched each cycle (Total)
system.switch_cpus_1.fetch.rateDist::mean     1.760724                       # Number of instructions fetched each cycle (Total)
system.switch_cpus_1.fetch.rateDist::stdev     2.702420                       # Number of instructions fetched each cycle (Total)
system.switch_cpus_1.fetch.rateDist::underflows            0      0.00%      0.00% # Number of instructions fetched each cycle (Total)
system.switch_cpus_1.fetch.rateDist::0        5152736     60.70%     60.70% # Number of instructions fetched each cycle (Total)
system.switch_cpus_1.fetch.rateDist::1         792562      9.34%     70.04% # Number of instructions fetched each cycle (Total)
system.switch_cpus_1.fetch.rateDist::2         187646      2.21%     72.25% # Number of instructions fetched each cycle (Total)
system.switch_cpus_1.fetch.rateDist::3          53293      0.63%     72.87% # Number of instructions fetched each cycle (Total)
system.switch_cpus_1.fetch.rateDist::4         590876      6.96%     79.83% # Number of instructions fetched each cycle (Total)
system.switch_cpus_1.fetch.rateDist::5         633555      7.46%     87.30% # Number of instructions fetched each cycle (Total)
system.switch_cpus_1.fetch.rateDist::6          31986      0.38%     87.67% # Number of instructions fetched each cycle (Total)
system.switch_cpus_1.fetch.rateDist::7         474393      5.59%     93.26% # Number of instructions fetched each cycle (Total)
system.switch_cpus_1.fetch.rateDist::8         571870      6.74%    100.00% # Number of instructions fetched each cycle (Total)
system.switch_cpus_1.fetch.rateDist::overflows            0      0.00%    100.00% # Number of instructions fetched each cycle (Total)
system.switch_cpus_1.fetch.rateDist::min_value            0                       # Number of instructions fetched each cycle (Total)
system.switch_cpus_1.fetch.rateDist::max_value            8                       # Number of instructions fetched each cycle (Total)
system.switch_cpus_1.fetch.rateDist::total      8488917                       # Number of instructions fetched each cycle (Total)
system.switch_cpus_1.idleCycles                 20005                       # Total number of cycles that the CPU has spent unscheduled due to idling
system.switch_cpus_1.iew.EXEC:branches        1993268                       # Number of branches executed
system.switch_cpus_1.iew.EXEC:nop              878993                       # number of nop insts executed
system.switch_cpus_1.iew.EXEC:rate           1.408848                       # Inst execution rate
system.switch_cpus_1.iew.EXEC:refs            3586383                       # number of memory reference insts executed
system.switch_cpus_1.iew.EXEC:stores          1637089                       # Number of stores executed
system.switch_cpus_1.iew.EXEC:swp                   0                       # number of swp insts executed
system.switch_cpus_1.iew.WB:consumers         8735080                       # num instructions consuming a value
system.switch_cpus_1.iew.WB:count            11895173                       # cumulative count of insts written-back
system.switch_cpus_1.iew.WB:fanout           0.765643                       # average fanout of values written-back
system.switch_cpus_1.iew.WB:penalized               0                       # number of instrctions required to write to 'other' IQ
system.switch_cpus_1.iew.WB:penalized_rate            0                       # fraction of instructions written-back that wrote to 'other' IQ
system.switch_cpus_1.iew.WB:producers         6687956                       # num instructions producing a value
system.switch_cpus_1.iew.WB:rate             1.397965                       # insts written-back per cycle
system.switch_cpus_1.iew.WB:sent             11905052                       # cumulative count of insts sent to commit
system.switch_cpus_1.iew.branchMispredicts       173159                       # Number of branch mispredicts detected at execute
system.switch_cpus_1.iew.iewBlockCycles         10708                       # Number of cycles IEW is blocking
system.switch_cpus_1.iew.iewDispLoadInsts      2067606                       # Number of dispatched load instructions
system.switch_cpus_1.iew.iewDispNonSpecInsts            0                       # Number of dispatched non-speculative instructions
system.switch_cpus_1.iew.iewDispSquashedInsts       393126                       # Number of squashed instructions skipped by dispatch
system.switch_cpus_1.iew.iewDispStoreInsts      1711715                       # Number of dispatched store instructions
system.switch_cpus_1.iew.iewDispatchedInsts     13521877                       # Number of instructions dispatched to IQ
system.switch_cpus_1.iew.iewExecLoadInsts      1949294                       # Number of load instructions executed
system.switch_cpus_1.iew.iewExecSquashedInsts       150665                       # Number of squashed instructions skipped in execute
system.switch_cpus_1.iew.iewExecutedInsts     11987774                       # Number of executed instructions
system.switch_cpus_1.iew.iewIQFullEvents           78                       # Number of times the IQ has become full, causing a stall
system.switch_cpus_1.iew.iewIdleCycles              0                       # Number of cycles IEW is idle
system.switch_cpus_1.iew.iewLSQFullEvents           20                       # Number of times the LSQ has become full, causing a stall
system.switch_cpus_1.iew.iewSquashCycles       515141                       # Number of cycles IEW is squashing
system.switch_cpus_1.iew.iewUnblockCycles          400                       # Number of cycles IEW is unblocking
system.switch_cpus_1.iew.lsq.thread.0.blockedLoads            0                       # Number of blocked loads due to partial load-store forwarding
system.switch_cpus_1.iew.lsq.thread.0.cacheBlocked        14870                       # Number of times an access to memory failed due to the cache being blocked
system.switch_cpus_1.iew.lsq.thread.0.forwLoads       144803                       # Number of loads that had data forwarded from stores
system.switch_cpus_1.iew.lsq.thread.0.ignoredResponses        10115                       # Number of memory responses ignored because the instruction is squashed
system.switch_cpus_1.iew.lsq.thread.0.invAddrLoads            0                       # Number of loads ignored due to an invalid address
system.switch_cpus_1.iew.lsq.thread.0.invAddrSwpfs            0                       # Number of software prefetches ignored due to an invalid address
system.switch_cpus_1.iew.lsq.thread.0.memOrderViolation        11471                       # Number of memory ordering violations
system.switch_cpus_1.iew.lsq.thread.0.rescheduledLoads            0                       # Number of loads that were rescheduled
system.switch_cpus_1.iew.lsq.thread.0.squashedLoads       461023                       # Number of loads squashed
system.switch_cpus_1.iew.lsq.thread.0.squashedStores       314293                       # Number of stores squashed
system.switch_cpus_1.iew.memOrderViolationEvents        11471                       # Number of memory order violations
system.switch_cpus_1.iew.predictedNotTakenIncorrect        28530                       # Number of branches that were predicted not taken incorrectly
system.switch_cpus_1.iew.predictedTakenIncorrect       144629                       # Number of branches that were predicted taken incorrectly
system.switch_cpus_1.ipc                     1.175237                       # IPC: Instructions Per Cycle
system.switch_cpus_1.ipc_total               1.175237                       # IPC: Total IPC of All Threads
system.switch_cpus_1.iq.ISSUE:FU_type_0::No_OpClass            0      0.00%      0.00% # Type of FU issued
system.switch_cpus_1.iq.ISSUE:FU_type_0::IntAlu      8514205     70.14%     70.14% # Type of FU issued
system.switch_cpus_1.iq.ISSUE:FU_type_0::IntMult            0      0.00%     70.14% # Type of FU issued
system.switch_cpus_1.iq.ISSUE:FU_type_0::IntDiv            0      0.00%     70.14% # Type of FU issued
system.switch_cpus_1.iq.ISSUE:FU_type_0::FloatAdd            0      0.00%     70.14% # Type of FU issued
system.switch_cpus_1.iq.ISSUE:FU_type_0::FloatCmp            0      0.00%     70.14% # Type of FU issued
system.switch_cpus_1.iq.ISSUE:FU_type_0::FloatCvt            0      0.00%     70.14% # Type of FU issued
system.switch_cpus_1.iq.ISSUE:FU_type_0::FloatMult            0      0.00%     70.14% # Type of FU issued
system.switch_cpus_1.iq.ISSUE:FU_type_0::FloatDiv            0      0.00%     70.14% # Type of FU issued
system.switch_cpus_1.iq.ISSUE:FU_type_0::FloatSqrt            0      0.00%     70.14% # Type of FU issued
system.switch_cpus_1.iq.ISSUE:FU_type_0::MemRead      1964263     16.18%     86.32% # Type of FU issued
system.switch_cpus_1.iq.ISSUE:FU_type_0::MemWrite      1659972     13.68%    100.00% # Type of FU issued
system.switch_cpus_1.iq.ISSUE:FU_type_0::IprAccess            0      0.00%    100.00% # Type of FU issued
system.switch_cpus_1.iq.ISSUE:FU_type_0::InstPrefetch            0      0.00%    100.00% # Type of FU issued
system.switch_cpus_1.iq.ISSUE:FU_type_0::total     12138440                       # Type of FU issued
system.switch_cpus_1.iq.ISSUE:fu_busy_cnt         6164                       # FU busy when requested
system.switch_cpus_1.iq.ISSUE:fu_busy_rate     0.000508                       # FU busy rate (busy events/executed inst)
system.switch_cpus_1.iq.ISSUE:fu_full::No_OpClass            0      0.00%      0.00% # attempts to use FU when none available
system.switch_cpus_1.iq.ISSUE:fu_full::IntAlu         5401     87.62%     87.62% # attempts to use FU when none available
system.switch_cpus_1.iq.ISSUE:fu_full::IntMult            0      0.00%     87.62% # attempts to use FU when none available
system.switch_cpus_1.iq.ISSUE:fu_full::IntDiv            0      0.00%     87.62% # attempts to use FU when none available
system.switch_cpus_1.iq.ISSUE:fu_full::FloatAdd            0      0.00%     87.62% # attempts to use FU when none available
system.switch_cpus_1.iq.ISSUE:fu_full::FloatCmp            0      0.00%     87.62% # attempts to use FU when none available
system.switch_cpus_1.iq.ISSUE:fu_full::FloatCvt            0      0.00%     87.62% # attempts to use FU when none available
system.switch_cpus_1.iq.ISSUE:fu_full::FloatMult            0      0.00%     87.62% # attempts to use FU when none available
system.switch_cpus_1.iq.ISSUE:fu_full::FloatDiv            0      0.00%     87.62% # attempts to use FU when none available
system.switch_cpus_1.iq.ISSUE:fu_full::FloatSqrt            0      0.00%     87.62% # attempts to use FU when none available
system.switch_cpus_1.iq.ISSUE:fu_full::MemRead          578      9.38%     97.00% # attempts to use FU when none available
system.switch_cpus_1.iq.ISSUE:fu_full::MemWrite          185      3.00%    100.00% # attempts to use FU when none available
system.switch_cpus_1.iq.ISSUE:fu_full::IprAccess            0      0.00%    100.00% # attempts to use FU when none available
system.switch_cpus_1.iq.ISSUE:fu_full::InstPrefetch            0      0.00%    100.00% # attempts to use FU when none available
system.switch_cpus_1.iq.ISSUE:issued_per_cycle::samples      8488917                       # Number of insts issued each cycle
system.switch_cpus_1.iq.ISSUE:issued_per_cycle::mean     1.429916                       # Number of insts issued each cycle
system.switch_cpus_1.iq.ISSUE:issued_per_cycle::stdev     1.319054                       # Number of insts issued each cycle
system.switch_cpus_1.iq.ISSUE:issued_per_cycle::underflows            0      0.00%      0.00% # Number of insts issued each cycle
system.switch_cpus_1.iq.ISSUE:issued_per_cycle::0      2379757     28.03%     28.03% # Number of insts issued each cycle
system.switch_cpus_1.iq.ISSUE:issued_per_cycle::1      2551171     30.05%     58.09% # Number of insts issued each cycle
system.switch_cpus_1.iq.ISSUE:issued_per_cycle::2      2325088     27.39%     85.48% # Number of insts issued each cycle
system.switch_cpus_1.iq.ISSUE:issued_per_cycle::3       202173      2.38%     87.86% # Number of insts issued each cycle
system.switch_cpus_1.iq.ISSUE:issued_per_cycle::4       863132     10.17%     98.03% # Number of insts issued each cycle
system.switch_cpus_1.iq.ISSUE:issued_per_cycle::5       134595      1.59%     99.61% # Number of insts issued each cycle
system.switch_cpus_1.iq.ISSUE:issued_per_cycle::6        26386      0.31%     99.92% # Number of insts issued each cycle
system.switch_cpus_1.iq.ISSUE:issued_per_cycle::7         6165      0.07%     99.99% # Number of insts issued each cycle
system.switch_cpus_1.iq.ISSUE:issued_per_cycle::8          450      0.01%    100.00% # Number of insts issued each cycle
system.switch_cpus_1.iq.ISSUE:issued_per_cycle::overflows            0      0.00%    100.00% # Number of insts issued each cycle
system.switch_cpus_1.iq.ISSUE:issued_per_cycle::min_value            0                       # Number of insts issued each cycle
system.switch_cpus_1.iq.ISSUE:issued_per_cycle::max_value            8                       # Number of insts issued each cycle
system.switch_cpus_1.iq.ISSUE:issued_per_cycle::total      8488917                       # Number of insts issued each cycle
system.switch_cpus_1.iq.ISSUE:rate           1.426554                       # Inst issue rate
system.switch_cpus_1.iq.iqInstsAdded         12642884                       # Number of instructions added to the IQ (excludes non-spec)
system.switch_cpus_1.iq.iqInstsIssued        12138440                       # Number of instructions issued
system.switch_cpus_1.iq.iqSquashedInstsExamined      2363366                       # Number of squashed instructions iterated over during squash; mainly for profiling
system.switch_cpus_1.iq.iqSquashedInstsIssued         2473                       # Number of squashed instructions issued
system.switch_cpus_1.iq.iqSquashedOperandsExamined       924572                       # Number of squashed operands that are examined and possibly removed from graph
system.switch_cpus_1.itb.data_accesses              0                       # DTB accesses
system.switch_cpus_1.itb.data_acv                   0                       # DTB access violations
system.switch_cpus_1.itb.data_hits                  0                       # DTB hits
system.switch_cpus_1.itb.data_misses                0                       # DTB misses
system.switch_cpus_1.itb.fetch_accesses       2280918                       # ITB accesses
system.switch_cpus_1.itb.fetch_acv                  0                       # ITB acv
system.switch_cpus_1.itb.fetch_hits           2280917                       # ITB hits
system.switch_cpus_1.itb.fetch_misses               1                       # ITB misses
system.switch_cpus_1.itb.read_accesses              0                       # DTB read accesses
system.switch_cpus_1.itb.read_acv                   0                       # DTB read access violations
system.switch_cpus_1.itb.read_hits                  0                       # DTB read hits
system.switch_cpus_1.itb.read_misses                0                       # DTB read misses
system.switch_cpus_1.itb.write_accesses             0                       # DTB write accesses
system.switch_cpus_1.itb.write_acv                  0                       # DTB write access violations
system.switch_cpus_1.itb.write_hits                 0                       # DTB write hits
system.switch_cpus_1.itb.write_misses               0                       # DTB write misses
system.switch_cpus_1.memDep0.conflictingLoads       614538                       # Number of conflicting loads.
system.switch_cpus_1.memDep0.conflictingStores       515193                       # Number of conflicting stores.
system.switch_cpus_1.memDep0.insertedLoads      2067606                       # Number of loads inserted to the mem dependence unit.
system.switch_cpus_1.memDep0.insertedStores      1711715                       # Number of stores inserted to the mem dependence unit.
system.switch_cpus_1.numCycles                8508922                       # number of cpu cycles simulated
system.switch_cpus_1.rename.RENAME:BlockCycles        72878                       # Number of cycles rename is blocking
system.switch_cpus_1.rename.RENAME:CommittedMaps      6978824                       # Number of HB maps that are committed
system.switch_cpus_1.rename.RENAME:IQFullEvents          302                       # Number of times rename has blocked due to IQ full
system.switch_cpus_1.rename.RENAME:IdleCycles      4638644                       # Number of cycles rename is idle
system.switch_cpus_1.rename.RENAME:LSQFullEvents        31129                       # Number of times rename has blocked due to LSQ full
system.switch_cpus_1.rename.RENAME:ROBFullEvents         2986                       # Number of times rename has blocked due to ROB full
system.switch_cpus_1.rename.RENAME:RenameLookups     19188290                       # Number of register rename lookups that rename has made
system.switch_cpus_1.rename.RENAME:RenamedInsts     14440849                       # Number of instructions processed by rename
system.switch_cpus_1.rename.RENAME:RenamedOperands      9464503                       # Number of destination operands rename has renamed
system.switch_cpus_1.rename.RENAME:RunCycles      3227956                       # Number of cycles rename is running
system.switch_cpus_1.rename.RENAME:SquashCycles       515141                       # Number of cycles rename is squashing
system.switch_cpus_1.rename.RENAME:UnblockCycles        34297                       # Number of cycles rename is unblocking
system.switch_cpus_1.rename.RENAME:UndoneMaps      2485666                       # Number of HB maps that are undone due to squashing
system.switch_cpus_1.rename.RENAME:serializeStallCycles            0                       # count of cycles rename stalled for serializing inst
system.switch_cpus_1.rename.RENAME:serializingInsts            0                       # count of serializing insts renamed
system.switch_cpus_1.rename.RENAME:skidInsts        64468                       # count of insts added to the skid buffer
system.switch_cpus_1.rename.RENAME:tempSerializingInsts            0                       # count of temporary serializing insts renamed
system.switch_cpus_1.timesIdled                   968                       # Number of times that the entire CPU went into an idle state and unscheduled itself

---------- End Simulation Statistics   ----------
