
---------- Begin Simulation Statistics ----------
host_inst_rate                                 597866                       # Simulator instruction rate (inst/s)
host_mem_usage                                 398772                       # Number of bytes of host memory used
host_seconds                                    33.45                       # Real time elapsed on the host
host_tick_rate                              546613867                       # Simulator tick rate (ticks/s)
sim_freq                                 1000000000000                       # Frequency of simulated ticks
sim_insts                                    20000003                       # Number of instructions simulated
sim_seconds                                  0.018287                       # Number of seconds simulated
sim_ticks                                 18286598500                       # Number of ticks simulated
system.cpu.dcache.ReadReq_accesses            3325170                       # number of ReadReq accesses(hits+misses)
system.cpu.dcache.ReadReq_avg_miss_latency 28118.991101                       # average ReadReq miss latency
system.cpu.dcache.ReadReq_avg_mshr_miss_latency 22706.665636                       # average ReadReq mshr miss latency
system.cpu.dcache.ReadReq_hits                3221116                       # number of ReadReq hits
system.cpu.dcache.ReadReq_miss_latency     2925893500                       # number of ReadReq miss cycles
system.cpu.dcache.ReadReq_miss_rate          0.031293                       # miss rate for ReadReq accesses
system.cpu.dcache.ReadReq_misses               104054                       # number of ReadReq misses
system.cpu.dcache.ReadReq_mshr_hits             19981                       # number of ReadReq MSHR hits
system.cpu.dcache.ReadReq_mshr_miss_latency   1909017500                       # number of ReadReq MSHR miss cycles
system.cpu.dcache.ReadReq_mshr_miss_rate     0.025284                       # mshr miss rate for ReadReq accesses
system.cpu.dcache.ReadReq_mshr_misses           84073                       # number of ReadReq MSHR misses
system.cpu.dcache.WriteReq_accesses           2822830                       # number of WriteReq accesses(hits+misses)
system.cpu.dcache.WriteReq_avg_miss_latency 53508.767221                       # average WriteReq miss latency
system.cpu.dcache.WriteReq_avg_mshr_miss_latency 57505.215482                       # average WriteReq mshr miss latency
system.cpu.dcache.WriteReq_hits               2817241                       # number of WriteReq hits
system.cpu.dcache.WriteReq_miss_latency     299060500                       # number of WriteReq miss cycles
system.cpu.dcache.WriteReq_miss_rate         0.001980                       # miss rate for WriteReq accesses
system.cpu.dcache.WriteReq_misses                5589                       # number of WriteReq misses
system.cpu.dcache.WriteReq_mshr_hits             1945                       # number of WriteReq MSHR hits
system.cpu.dcache.WriteReq_mshr_miss_latency    209491500                       # number of WriteReq MSHR miss cycles
system.cpu.dcache.WriteReq_mshr_miss_rate     0.001291                       # mshr miss rate for WriteReq accesses
system.cpu.dcache.WriteReq_mshr_misses           3643                       # number of WriteReq MSHR misses
system.cpu.dcache.avg_blocked_cycles::no_mshrs     no_value                       # average number of cycles each access was blocked
system.cpu.dcache.avg_blocked_cycles::no_targets 26541.809098                       # average number of cycles each access was blocked
system.cpu.dcache.avg_refs                  69.424057                       # Average number of references to valid blocks.
system.cpu.dcache.blocked::no_mshrs                 0                       # number of cycles access was blocked
system.cpu.dcache.blocked::no_targets            3803                       # number of cycles access was blocked
system.cpu.dcache.blocked_cycles::no_mshrs            0                       # number of cycles access was blocked
system.cpu.dcache.blocked_cycles::no_targets    100938500                       # number of cycles access was blocked
system.cpu.dcache.cache_copies                      0                       # number of cache copies performed
system.cpu.dcache.demand_accesses             6148000                       # number of demand (read+write) accesses
system.cpu.dcache.demand_avg_miss_latency 29413.222914                       # average overall miss latency
system.cpu.dcache.demand_avg_mshr_miss_latency 24151.910712                       # average overall mshr miss latency
system.cpu.dcache.demand_hits                 6038357                       # number of demand (read+write) hits
system.cpu.dcache.demand_miss_latency      3224954000                       # number of demand (read+write) miss cycles
system.cpu.dcache.demand_miss_rate           0.017834                       # miss rate for demand accesses
system.cpu.dcache.demand_misses                109643                       # number of demand (read+write) misses
system.cpu.dcache.demand_mshr_hits              21926                       # number of demand (read+write) MSHR hits
system.cpu.dcache.demand_mshr_miss_latency   2118509000                       # number of demand (read+write) MSHR miss cycles
system.cpu.dcache.demand_mshr_miss_rate      0.014267                       # mshr miss rate for demand accesses
system.cpu.dcache.demand_mshr_misses            87716                       # number of demand (read+write) MSHR misses
system.cpu.dcache.fast_writes                       0                       # number of fast writes performed
system.cpu.dcache.mshr_cap_events                   0                       # number of times MSHR cap was activated
system.cpu.dcache.no_allocate_misses                0                       # Number of misses that were no-allocate
system.cpu.dcache.occ_%::0                   0.980859                       # Average percentage of cache occupancy
system.cpu.dcache.occ_blocks::0           1004.399164                       # Average occupied blocks per context
system.cpu.dcache.overall_accesses            6148000                       # number of overall (read+write) accesses
system.cpu.dcache.overall_avg_miss_latency 29413.222914                       # average overall miss latency
system.cpu.dcache.overall_avg_mshr_miss_latency 24151.910712                       # average overall mshr miss latency
system.cpu.dcache.overall_avg_mshr_uncacheable_latency     no_value                       # average overall mshr uncacheable latency
system.cpu.dcache.overall_hits                6038357                       # number of overall hits
system.cpu.dcache.overall_miss_latency     3224954000                       # number of overall miss cycles
system.cpu.dcache.overall_miss_rate          0.017834                       # miss rate for overall accesses
system.cpu.dcache.overall_misses               109643                       # number of overall misses
system.cpu.dcache.overall_mshr_hits             21926                       # number of overall MSHR hits
system.cpu.dcache.overall_mshr_miss_latency   2118509000                       # number of overall MSHR miss cycles
system.cpu.dcache.overall_mshr_miss_rate     0.014267                       # mshr miss rate for overall accesses
system.cpu.dcache.overall_mshr_misses           87716                       # number of overall MSHR misses
system.cpu.dcache.overall_mshr_uncacheable_latency            0                       # number of overall MSHR uncacheable cycles
system.cpu.dcache.overall_mshr_uncacheable_misses            0                       # number of overall MSHR uncacheable misses
system.cpu.dcache.prefetch_accuracy          no_value                       # ratio of good prefetches to total prefetches
system.cpu.dcache.prefetch_hits                     0                       # number of prefetched blocks that were accessed
system.cpu.dcache.replacements                  85969                       # number of replacements
system.cpu.dcache.sampled_refs                  86993                       # Sample count of references to valid blocks.
system.cpu.dcache.soft_prefetch_mshr_full            0                       # number of mshr full events for SW prefetching instrutions
system.cpu.dcache.tagsinuse               1004.399164                       # Cycle average of tags in use
system.cpu.dcache.total_refs                  6039407                       # Total number of references to valid blocks.
system.cpu.dcache.warmup_cycle           502144070000                       # Cycle when the warmup percentage was hit.
system.cpu.dcache.writebacks                     3600                       # number of writebacks
system.cpu.dtb.data_accesses                        1                       # DTB accesses
system.cpu.dtb.data_acv                             0                       # DTB access violations
system.cpu.dtb.data_hits                            1                       # DTB hits
system.cpu.dtb.data_misses                          0                       # DTB misses
system.cpu.dtb.fetch_accesses                       0                       # ITB accesses
system.cpu.dtb.fetch_acv                            0                       # ITB acv
system.cpu.dtb.fetch_hits                           0                       # ITB hits
system.cpu.dtb.fetch_misses                         0                       # ITB misses
system.cpu.dtb.read_accesses                        0                       # DTB read accesses
system.cpu.dtb.read_acv                             0                       # DTB read access violations
system.cpu.dtb.read_hits                            0                       # DTB read hits
system.cpu.dtb.read_misses                          0                       # DTB read misses
system.cpu.dtb.write_accesses                       1                       # DTB write accesses
system.cpu.dtb.write_acv                            0                       # DTB write access violations
system.cpu.dtb.write_hits                           1                       # DTB write hits
system.cpu.dtb.write_misses                         0                       # DTB write misses
system.cpu.icache.ReadReq_accesses           12286381                       # number of ReadReq accesses(hits+misses)
system.cpu.icache.ReadReq_avg_miss_latency        48000                       # average ReadReq miss latency
system.cpu.icache.ReadReq_avg_mshr_miss_latency        56875                       # average ReadReq mshr miss latency
system.cpu.icache.ReadReq_hits               12286368                       # number of ReadReq hits
system.cpu.icache.ReadReq_miss_latency         624000                       # number of ReadReq miss cycles
system.cpu.icache.ReadReq_miss_rate          0.000001                       # miss rate for ReadReq accesses
system.cpu.icache.ReadReq_misses                   13                       # number of ReadReq misses
system.cpu.icache.ReadReq_mshr_hits                 4                       # number of ReadReq MSHR hits
system.cpu.icache.ReadReq_mshr_miss_latency       455000                       # number of ReadReq MSHR miss cycles
system.cpu.icache.ReadReq_mshr_miss_rate     0.000001                       # mshr miss rate for ReadReq accesses
system.cpu.icache.ReadReq_mshr_misses               8                       # number of ReadReq MSHR misses
system.cpu.icache.avg_blocked_cycles::no_mshrs     no_value                       # average number of cycles each access was blocked
system.cpu.icache.avg_blocked_cycles::no_targets        22000                       # average number of cycles each access was blocked
system.cpu.icache.avg_refs                    1365152                       # Average number of references to valid blocks.
system.cpu.icache.blocked::no_mshrs                 0                       # number of cycles access was blocked
system.cpu.icache.blocked::no_targets               1                       # number of cycles access was blocked
system.cpu.icache.blocked_cycles::no_mshrs            0                       # number of cycles access was blocked
system.cpu.icache.blocked_cycles::no_targets        22000                       # number of cycles access was blocked
system.cpu.icache.cache_copies                      0                       # number of cache copies performed
system.cpu.icache.demand_accesses            12286381                       # number of demand (read+write) accesses
system.cpu.icache.demand_avg_miss_latency        48000                       # average overall miss latency
system.cpu.icache.demand_avg_mshr_miss_latency        56875                       # average overall mshr miss latency
system.cpu.icache.demand_hits                12286368                       # number of demand (read+write) hits
system.cpu.icache.demand_miss_latency          624000                       # number of demand (read+write) miss cycles
system.cpu.icache.demand_miss_rate           0.000001                       # miss rate for demand accesses
system.cpu.icache.demand_misses                    13                       # number of demand (read+write) misses
system.cpu.icache.demand_mshr_hits                  4                       # number of demand (read+write) MSHR hits
system.cpu.icache.demand_mshr_miss_latency       455000                       # number of demand (read+write) MSHR miss cycles
system.cpu.icache.demand_mshr_miss_rate      0.000001                       # mshr miss rate for demand accesses
system.cpu.icache.demand_mshr_misses                8                       # number of demand (read+write) MSHR misses
system.cpu.icache.fast_writes                       0                       # number of fast writes performed
system.cpu.icache.mshr_cap_events                   0                       # number of times MSHR cap was activated
system.cpu.icache.no_allocate_misses                0                       # Number of misses that were no-allocate
system.cpu.icache.occ_%::0                   0.012829                       # Average percentage of cache occupancy
system.cpu.icache.occ_blocks::0              6.568450                       # Average occupied blocks per context
system.cpu.icache.overall_accesses           12286381                       # number of overall (read+write) accesses
system.cpu.icache.overall_avg_miss_latency        48000                       # average overall miss latency
system.cpu.icache.overall_avg_mshr_miss_latency        56875                       # average overall mshr miss latency
system.cpu.icache.overall_avg_mshr_uncacheable_latency     no_value                       # average overall mshr uncacheable latency
system.cpu.icache.overall_hits               12286368                       # number of overall hits
system.cpu.icache.overall_miss_latency         624000                       # number of overall miss cycles
system.cpu.icache.overall_miss_rate          0.000001                       # miss rate for overall accesses
system.cpu.icache.overall_misses                   13                       # number of overall misses
system.cpu.icache.overall_mshr_hits                 4                       # number of overall MSHR hits
system.cpu.icache.overall_mshr_miss_latency       455000                       # number of overall MSHR miss cycles
system.cpu.icache.overall_mshr_miss_rate     0.000001                       # mshr miss rate for overall accesses
system.cpu.icache.overall_mshr_misses               8                       # number of overall MSHR misses
system.cpu.icache.overall_mshr_uncacheable_latency            0                       # number of overall MSHR uncacheable cycles
system.cpu.icache.overall_mshr_uncacheable_misses            0                       # number of overall MSHR uncacheable misses
system.cpu.icache.prefetch_accuracy          no_value                       # ratio of good prefetches to total prefetches
system.cpu.icache.prefetch_hits                     0                       # number of prefetched blocks that were accessed
system.cpu.icache.replacements                      0                       # number of replacements
system.cpu.icache.sampled_refs                      9                       # Sample count of references to valid blocks.
system.cpu.icache.soft_prefetch_mshr_full            0                       # number of mshr full events for SW prefetching instrutions
system.cpu.icache.tagsinuse                  6.568450                       # Cycle average of tags in use
system.cpu.icache.total_refs                 12286368                       # Total number of references to valid blocks.
system.cpu.icache.warmup_cycle                      0                       # Cycle when the warmup percentage was hit.
system.cpu.icache.writebacks                        0                       # number of writebacks
system.cpu.idle_fraction                            0                       # Percentage of idle cycles
system.cpu.itb.data_accesses                        0                       # DTB accesses
system.cpu.itb.data_acv                             0                       # DTB access violations
system.cpu.itb.data_hits                            0                       # DTB hits
system.cpu.itb.data_misses                          0                       # DTB misses
system.cpu.itb.fetch_accesses                       2                       # ITB accesses
system.cpu.itb.fetch_acv                            0                       # ITB acv
system.cpu.itb.fetch_hits                           2                       # ITB hits
system.cpu.itb.fetch_misses                         0                       # ITB misses
system.cpu.itb.read_accesses                        0                       # DTB read accesses
system.cpu.itb.read_acv                             0                       # DTB read access violations
system.cpu.itb.read_hits                            0                       # DTB read hits
system.cpu.itb.read_misses                          0                       # DTB read misses
system.cpu.itb.write_accesses                       0                       # DTB write accesses
system.cpu.itb.write_acv                            0                       # DTB write access violations
system.cpu.itb.write_hits                           0                       # DTB write hits
system.cpu.itb.write_misses                         0                       # DTB write misses
system.cpu.not_idle_fraction                        1                       # Percentage of non-idle cycles
system.cpu.numCycles                                2                       # number of cpu cycles simulated
system.cpu.num_insts                                2                       # Number of instructions executed
system.cpu.num_refs                                 1                       # Number of memory references
system.cpu.workload.PROG:num_syscalls               0                       # Number of system calls
system.l2.HardPFReq_avg_mshr_miss_latency 35377.162503                       # average HardPFReq mshr miss latency
system.l2.HardPFReq_mshr_miss_latency       137369522                       # number of HardPFReq MSHR miss cycles
system.l2.HardPFReq_mshr_miss_rate                inf                       # mshr miss rate for HardPFReq accesses
system.l2.HardPFReq_mshr_misses                  3883                       # number of HardPFReq MSHR misses
system.l2.ReadExReq_accesses                     2920                       # number of ReadExReq accesses(hits+misses)
system.l2.ReadExReq_avg_miss_latency     56420.547945                       # average ReadExReq miss latency
system.l2.ReadExReq_avg_mshr_miss_latency 40468.311065                       # average ReadExReq mshr miss latency
system.l2.ReadExReq_miss_latency            164748000                       # number of ReadExReq miss cycles
system.l2.ReadExReq_miss_rate                       1                       # miss rate for ReadExReq accesses
system.l2.ReadExReq_misses                       2920                       # number of ReadExReq misses
system.l2.ReadExReq_mshr_miss_latency       118127000                       # number of ReadExReq MSHR miss cycles
system.l2.ReadExReq_mshr_miss_rate           0.999658                       # mshr miss rate for ReadExReq accesses
system.l2.ReadExReq_mshr_misses                  2919                       # number of ReadExReq MSHR misses
system.l2.ReadReq_accesses                      84082                       # number of ReadReq accesses(hits+misses)
system.l2.ReadReq_avg_miss_latency       57612.296017                       # average ReadReq miss latency
system.l2.ReadReq_avg_mshr_miss_latency  41772.844528                       # average ReadReq mshr miss latency
system.l2.ReadReq_hits                          63921                       # number of ReadReq hits
system.l2.ReadReq_miss_latency             1161521500                       # number of ReadReq miss cycles
system.l2.ReadReq_miss_rate                  0.239778                       # miss rate for ReadReq accesses
system.l2.ReadReq_misses                        20161                       # number of ReadReq misses
system.l2.ReadReq_mshr_hits                         2                       # number of ReadReq MSHR hits
system.l2.ReadReq_mshr_miss_latency         842057000                       # number of ReadReq MSHR miss cycles
system.l2.ReadReq_mshr_miss_rate             0.239742                       # mshr miss rate for ReadReq accesses
system.l2.ReadReq_mshr_misses                   20158                       # number of ReadReq MSHR misses
system.l2.UpgradeReq_accesses                     724                       # number of UpgradeReq accesses(hits+misses)
system.l2.UpgradeReq_avg_miss_latency    56595.994475                       # average UpgradeReq miss latency
system.l2.UpgradeReq_avg_mshr_miss_latency 40665.055249                       # average UpgradeReq mshr miss latency
system.l2.UpgradeReq_miss_latency            40975500                       # number of UpgradeReq miss cycles
system.l2.UpgradeReq_miss_rate                      1                       # miss rate for UpgradeReq accesses
system.l2.UpgradeReq_misses                       724                       # number of UpgradeReq misses
system.l2.UpgradeReq_mshr_miss_latency       29441500                       # number of UpgradeReq MSHR miss cycles
system.l2.UpgradeReq_mshr_miss_rate                 1                       # mshr miss rate for UpgradeReq accesses
system.l2.UpgradeReq_mshr_misses                  724                       # number of UpgradeReq MSHR misses
system.l2.Writeback_accesses                     3600                       # number of Writeback accesses(hits+misses)
system.l2.Writeback_hits                         3600                       # number of Writeback hits
system.l2.avg_blocked_cycles::no_mshrs       no_value                       # average number of cycles each access was blocked
system.l2.avg_blocked_cycles::no_targets     no_value                       # average number of cycles each access was blocked
system.l2.avg_refs                           2.785158                       # Average number of references to valid blocks.
system.l2.blocked::no_mshrs                         0                       # number of cycles access was blocked
system.l2.blocked::no_targets                       0                       # number of cycles access was blocked
system.l2.blocked_cycles::no_mshrs                  0                       # number of cycles access was blocked
system.l2.blocked_cycles::no_targets                0                       # number of cycles access was blocked
system.l2.cache_copies                              0                       # number of cache copies performed
system.l2.demand_accesses                       87002                       # number of demand (read+write) accesses
system.l2.demand_avg_miss_latency        57461.526797                       # average overall miss latency
system.l2.demand_avg_mshr_miss_latency   41607.834641                       # average overall mshr miss latency
system.l2.demand_hits                           63921                       # number of demand (read+write) hits
system.l2.demand_miss_latency              1326269500                       # number of demand (read+write) miss cycles
system.l2.demand_miss_rate                   0.265293                       # miss rate for demand accesses
system.l2.demand_misses                         23081                       # number of demand (read+write) misses
system.l2.demand_mshr_hits                          2                       # number of demand (read+write) MSHR hits
system.l2.demand_mshr_miss_latency          960184000                       # number of demand (read+write) MSHR miss cycles
system.l2.demand_mshr_miss_rate              0.265247                       # mshr miss rate for demand accesses
system.l2.demand_mshr_misses                    23077                       # number of demand (read+write) MSHR misses
system.l2.fast_writes                               0                       # number of fast writes performed
system.l2.mshr_cap_events                           0                       # number of times MSHR cap was activated
system.l2.no_allocate_misses                        0                       # Number of misses that were no-allocate
system.l2.occ_%::0                           0.593641                       # Average percentage of cache occupancy
system.l2.occ_%::1                           0.000276                       # Average percentage of cache occupancy
system.l2.occ_blocks::0                   9726.220056                       # Average occupied blocks per context
system.l2.occ_blocks::1                      4.515005                       # Average occupied blocks per context
system.l2.overall_accesses                      87002                       # number of overall (read+write) accesses
system.l2.overall_avg_miss_latency       57461.526797                       # average overall miss latency
system.l2.overall_avg_mshr_miss_latency  40710.442211                       # average overall mshr miss latency
system.l2.overall_avg_mshr_uncacheable_latency     no_value                       # average overall mshr uncacheable latency
system.l2.overall_hits                          63921                       # number of overall hits
system.l2.overall_miss_latency             1326269500                       # number of overall miss cycles
system.l2.overall_miss_rate                  0.265293                       # miss rate for overall accesses
system.l2.overall_misses                        23081                       # number of overall misses
system.l2.overall_mshr_hits                         2                       # number of overall MSHR hits
system.l2.overall_mshr_miss_latency        1097553522                       # number of overall MSHR miss cycles
system.l2.overall_mshr_miss_rate             0.309878                       # mshr miss rate for overall accesses
system.l2.overall_mshr_misses                   26960                       # number of overall MSHR misses
system.l2.overall_mshr_uncacheable_latency            0                       # number of overall MSHR uncacheable cycles
system.l2.overall_mshr_uncacheable_misses            0                       # number of overall MSHR uncacheable misses
system.l2.prefetch_accuracy                  0.933299                       # ratio of good prefetches to total prefetches
system.l2.prefetch_hits                          3624                       # number of prefetched blocks that were accessed
system.l2.prefetcher.num_hwpf_already_in_prefetcher           19                       # number of hwpf that were already in the prefetch queue
system.l2.prefetcher.num_hwpf_evicted               0                       # number of hwpf removed due to no buffer left
system.l2.prefetcher.num_hwpf_identified         3904                       # number of hwpf identified
system.l2.prefetcher.num_hwpf_issued             3883                       # number of hwpf issued
system.l2.prefetcher.num_hwpf_removed_MSHR_hit            2                       # number of hwpf removed because MSHR allocated
system.l2.prefetcher.num_hwpf_span_page             0                       # number of hwpf spanning a virtual page
system.l2.prefetcher.num_hwpf_squashed_from_miss            0                       # number of hwpf that got squashed due to a miss aborting calculation time
system.l2.replacements                           9124                       # number of replacements
system.l2.sampled_refs                          24027                       # Sample count of references to valid blocks.
system.l2.soft_prefetch_mshr_full                   0                       # number of mshr full events for SW prefetching instrutions
system.l2.tagsinuse                       9730.735061                       # Cycle average of tags in use
system.l2.total_refs                            66919                       # Total number of references to valid blocks.
system.l2.warmup_cycle                              0                       # Cycle when the warmup percentage was hit.
system.l2.writebacks                             1275                       # number of writebacks
system.switch_cpus.dtb.data_accesses          2972120                       # DTB accesses
system.switch_cpus.dtb.data_acv                     0                       # DTB access violations
system.switch_cpus.dtb.data_hits              2969257                       # DTB hits
system.switch_cpus.dtb.data_misses               2863                       # DTB misses
system.switch_cpus.dtb.fetch_accesses               0                       # ITB accesses
system.switch_cpus.dtb.fetch_acv                    0                       # ITB acv
system.switch_cpus.dtb.fetch_hits                   0                       # ITB hits
system.switch_cpus.dtb.fetch_misses                 0                       # ITB misses
system.switch_cpus.dtb.read_accesses          1546660                       # DTB read accesses
system.switch_cpus.dtb.read_acv                     0                       # DTB read access violations
system.switch_cpus.dtb.read_hits              1543848                       # DTB read hits
system.switch_cpus.dtb.read_misses               2812                       # DTB read misses
system.switch_cpus.dtb.write_accesses         1425460                       # DTB write accesses
system.switch_cpus.dtb.write_acv                    0                       # DTB write access violations
system.switch_cpus.dtb.write_hits             1425409                       # DTB write hits
system.switch_cpus.dtb.write_misses                51                       # DTB write misses
system.switch_cpus.idle_fraction                    1                       # Percentage of idle cycles
system.switch_cpus.itb.data_accesses                0                       # DTB accesses
system.switch_cpus.itb.data_acv                     0                       # DTB access violations
system.switch_cpus.itb.data_hits                    0                       # DTB hits
system.switch_cpus.itb.data_misses                  0                       # DTB misses
system.switch_cpus.itb.fetch_accesses        10002866                       # ITB accesses
system.switch_cpus.itb.fetch_acv                    0                       # ITB acv
system.switch_cpus.itb.fetch_hits            10002865                       # ITB hits
system.switch_cpus.itb.fetch_misses                 1                       # ITB misses
system.switch_cpus.itb.read_accesses                0                       # DTB read accesses
system.switch_cpus.itb.read_acv                     0                       # DTB read access violations
system.switch_cpus.itb.read_hits                    0                       # DTB read hits
system.switch_cpus.itb.read_misses                  0                       # DTB read misses
system.switch_cpus.itb.write_accesses               0                       # DTB write accesses
system.switch_cpus.itb.write_acv                    0                       # DTB write access violations
system.switch_cpus.itb.write_hits                   0                       # DTB write hits
system.switch_cpus.itb.write_misses                 0                       # DTB write misses
system.switch_cpus.not_idle_fraction                0                       # Percentage of non-idle cycles
system.switch_cpus.numCycles                 28055728                       # number of cpu cycles simulated
system.switch_cpus.num_insts                 10000001                       # Number of instructions executed
system.switch_cpus.num_refs                   2972120                       # Number of memory references
system.switch_cpus_1.BPredUnit.BTBCorrect            0                       # Number of correct BTB predictions (this stat may not work properly.
system.switch_cpus_1.BPredUnit.BTBHits        2147395                       # Number of BTB hits
system.switch_cpus_1.BPredUnit.BTBLookups      2209252                       # Number of BTB lookups
system.switch_cpus_1.BPredUnit.RASInCorrect            0                       # Number of incorrect RAS predictions.
system.switch_cpus_1.BPredUnit.condIncorrect       160237                       # Number of conditional branches incorrect
system.switch_cpus_1.BPredUnit.condPredicted      2191979                       # Number of conditional branches predicted
system.switch_cpus_1.BPredUnit.lookups        2351789                       # Number of BP lookups
system.switch_cpus_1.BPredUnit.usedRAS              0                       # Number of times the RAS was used to get a target.
system.switch_cpus_1.commit.COM:branches      1623752                       # Number of branches committed
system.switch_cpus_1.commit.COM:bw_lim_events        92157                       # number cycles where commit BW limit reached
system.switch_cpus_1.commit.COM:bw_limited            0                       # number of insts not committed due to BW limits
system.switch_cpus_1.commit.COM:committed_per_cycle::samples      7982970                       # Number of insts commited each cycle
system.switch_cpus_1.commit.COM:committed_per_cycle::mean     1.302586                       # Number of insts commited each cycle
system.switch_cpus_1.commit.COM:committed_per_cycle::stdev     1.765426                       # Number of insts commited each cycle
system.switch_cpus_1.commit.COM:committed_per_cycle::underflows            0      0.00%      0.00% # Number of insts commited each cycle
system.switch_cpus_1.commit.COM:committed_per_cycle::0      3403176     42.63%     42.63% # Number of insts commited each cycle
system.switch_cpus_1.commit.COM:committed_per_cycle::1      2845383     35.64%     78.27% # Number of insts commited each cycle
system.switch_cpus_1.commit.COM:committed_per_cycle::2       167105      2.09%     80.37% # Number of insts commited each cycle
system.switch_cpus_1.commit.COM:committed_per_cycle::3        75339      0.94%     81.31% # Number of insts commited each cycle
system.switch_cpus_1.commit.COM:committed_per_cycle::4       755797      9.47%     90.78% # Number of insts commited each cycle
system.switch_cpus_1.commit.COM:committed_per_cycle::5       634844      7.95%     98.73% # Number of insts commited each cycle
system.switch_cpus_1.commit.COM:committed_per_cycle::6         5949      0.07%     98.81% # Number of insts commited each cycle
system.switch_cpus_1.commit.COM:committed_per_cycle::7         3220      0.04%     98.85% # Number of insts commited each cycle
system.switch_cpus_1.commit.COM:committed_per_cycle::8        92157      1.15%    100.00% # Number of insts commited each cycle
system.switch_cpus_1.commit.COM:committed_per_cycle::overflows            0      0.00%    100.00% # Number of insts commited each cycle
system.switch_cpus_1.commit.COM:committed_per_cycle::min_value            0                       # Number of insts commited each cycle
system.switch_cpus_1.commit.COM:committed_per_cycle::max_value            8                       # Number of insts commited each cycle
system.switch_cpus_1.commit.COM:committed_per_cycle::total      7982970                       # Number of insts commited each cycle
system.switch_cpus_1.commit.COM:count        10398508                       # Number of instructions committed
system.switch_cpus_1.commit.COM:loads         1606582                       # Number of loads committed
system.switch_cpus_1.commit.COM:membars             0                       # Number of memory barriers committed
system.switch_cpus_1.commit.COM:refs          3004003                       # Number of memory references committed
system.switch_cpus_1.commit.COM:swp_count            0                       # Number of s/w prefetches committed
system.switch_cpus_1.commit.branchMispredicts       160233                       # The number of times a branch was mispredicted
system.switch_cpus_1.commit.commitCommittedInsts     10398508                       # The number of committed instructions
system.switch_cpus_1.commit.commitSquashedInsts      3036661                       # The number of squashed insts skipped by commit
system.switch_cpus_1.committedInsts          10000000                       # Number of Instructions Simulated
system.switch_cpus_1.committedInsts_total     10000000                       # Number of Instructions Simulated
system.switch_cpus_1.cpi                     0.851747                       # CPI: Cycles Per Instruction
system.switch_cpus_1.cpi_total               0.851747                       # CPI: Total CPI of All Threads
system.switch_cpus_1.decode.DECODE:BlockedCycles       102021                       # Number of cycles decode is blocked
system.switch_cpus_1.decode.DECODE:BranchMispred          200                       # Number of times decode detected a branch misprediction
system.switch_cpus_1.decode.DECODE:BranchResolved       154643                       # Number of times decode resolved a branch
system.switch_cpus_1.decode.DECODE:DecodedInsts     14659571                       # Number of instructions handled by decode
system.switch_cpus_1.decode.DECODE:IdleCycles      4590888                       # Number of cycles decode is idle
system.switch_cpus_1.decode.DECODE:RunCycles      3285584                       # Number of cycles decode is running
system.switch_cpus_1.decode.DECODE:SquashCycles       516575                       # Number of cycles decode is squashing
system.switch_cpus_1.decode.DECODE:SquashedInsts            8                       # Number of squashed instructions handled by decode
system.switch_cpus_1.decode.DECODE:UnblockCycles         4476                       # Number of cycles decode is unblocking
system.switch_cpus_1.dtb.data_accesses        3584694                       # DTB accesses
system.switch_cpus_1.dtb.data_acv                   0                       # DTB access violations
system.switch_cpus_1.dtb.data_hits            3578064                       # DTB hits
system.switch_cpus_1.dtb.data_misses             6630                       # DTB misses
system.switch_cpus_1.dtb.fetch_accesses             0                       # ITB accesses
system.switch_cpus_1.dtb.fetch_acv                  0                       # ITB acv
system.switch_cpus_1.dtb.fetch_hits                 0                       # ITB hits
system.switch_cpus_1.dtb.fetch_misses               0                       # ITB misses
system.switch_cpus_1.dtb.read_accesses        1948002                       # DTB read accesses
system.switch_cpus_1.dtb.read_acv                   0                       # DTB read access violations
system.switch_cpus_1.dtb.read_hits            1941633                       # DTB read hits
system.switch_cpus_1.dtb.read_misses             6369                       # DTB read misses
system.switch_cpus_1.dtb.write_accesses       1636692                       # DTB write accesses
system.switch_cpus_1.dtb.write_acv                  0                       # DTB write access violations
system.switch_cpus_1.dtb.write_hits           1636431                       # DTB write hits
system.switch_cpus_1.dtb.write_misses             261                       # DTB write misses
system.switch_cpus_1.fetch.Branches           2351789                       # Number of branches that fetch encountered
system.switch_cpus_1.fetch.CacheLines         2283514                       # Number of cache lines fetched
system.switch_cpus_1.fetch.Cycles             5626870                       # Number of cycles fetch has run and was not squashing or blocked
system.switch_cpus_1.fetch.IcacheSquashes        41906                       # Number of outstanding Icache misses that were squashed
system.switch_cpus_1.fetch.Insts             14959016                       # Number of instructions fetch has processed
system.switch_cpus_1.fetch.SquashCycles        188522                       # Number of cycles fetch has spent squashing
system.switch_cpus_1.fetch.branchRate        0.276114                       # Number of branch fetches per cycle
system.switch_cpus_1.fetch.icacheStallCycles      2283514                       # Number of cycles fetch is stalled on an Icache miss
system.switch_cpus_1.fetch.predictedBranches      2147395                       # Number of branches that fetch has predicted taken
system.switch_cpus_1.fetch.rate              1.756275                       # Number of inst fetches per cycle
system.switch_cpus_1.fetch.rateDist::samples      8499545                       # Number of instructions fetched each cycle (Total)
system.switch_cpus_1.fetch.rateDist::mean     1.759978                       # Number of instructions fetched each cycle (Total)
system.switch_cpus_1.fetch.rateDist::stdev     2.693242                       # Number of instructions fetched each cycle (Total)
system.switch_cpus_1.fetch.rateDist::underflows            0      0.00%      0.00% # Number of instructions fetched each cycle (Total)
system.switch_cpus_1.fetch.rateDist::0        5156189     60.66%     60.66% # Number of instructions fetched each cycle (Total)
system.switch_cpus_1.fetch.rateDist::1         796298      9.37%     70.03% # Number of instructions fetched each cycle (Total)
system.switch_cpus_1.fetch.rateDist::2         189062      2.22%     72.26% # Number of instructions fetched each cycle (Total)
system.switch_cpus_1.fetch.rateDist::3          52670      0.62%     72.88% # Number of instructions fetched each cycle (Total)
system.switch_cpus_1.fetch.rateDist::4         534862      6.29%     79.17% # Number of instructions fetched each cycle (Total)
system.switch_cpus_1.fetch.rateDist::5         696385      8.19%     87.36% # Number of instructions fetched each cycle (Total)
system.switch_cpus_1.fetch.rateDist::6          27860      0.33%     87.69% # Number of instructions fetched each cycle (Total)
system.switch_cpus_1.fetch.rateDist::7         531701      6.26%     93.95% # Number of instructions fetched each cycle (Total)
system.switch_cpus_1.fetch.rateDist::8         514518      6.05%    100.00% # Number of instructions fetched each cycle (Total)
system.switch_cpus_1.fetch.rateDist::overflows            0      0.00%    100.00% # Number of instructions fetched each cycle (Total)
system.switch_cpus_1.fetch.rateDist::min_value            0                       # Number of instructions fetched each cycle (Total)
system.switch_cpus_1.fetch.rateDist::max_value            8                       # Number of instructions fetched each cycle (Total)
system.switch_cpus_1.fetch.rateDist::total      8499545                       # Number of instructions fetched each cycle (Total)
system.switch_cpus_1.idleCycles                 17923                       # Total number of cycles that the CPU has spent unscheduled due to idling
system.switch_cpus_1.iew.EXEC:branches        1996149                       # Number of branches executed
system.switch_cpus_1.iew.EXEC:nop              885643                       # number of nop insts executed
system.switch_cpus_1.iew.EXEC:rate           1.407338                       # Inst execution rate
system.switch_cpus_1.iew.EXEC:refs            3584694                       # number of memory reference insts executed
system.switch_cpus_1.iew.EXEC:stores          1636692                       # Number of stores executed
system.switch_cpus_1.iew.EXEC:swp                   0                       # number of swp insts executed
system.switch_cpus_1.iew.WB:consumers         8707370                       # num instructions consuming a value
system.switch_cpus_1.iew.WB:count            11893999                       # cumulative count of insts written-back
system.switch_cpus_1.iew.WB:fanout           0.767187                       # average fanout of values written-back
system.switch_cpus_1.iew.WB:penalized               0                       # number of instrctions required to write to 'other' IQ
system.switch_cpus_1.iew.WB:penalized_rate            0                       # fraction of instructions written-back that wrote to 'other' IQ
system.switch_cpus_1.iew.WB:producers         6680180                       # num instructions producing a value
system.switch_cpus_1.iew.WB:rate             1.396424                       # insts written-back per cycle
system.switch_cpus_1.iew.WB:sent             11903736                       # cumulative count of insts sent to commit
system.switch_cpus_1.iew.branchMispredicts       174460                       # Number of branch mispredicts detected at execute
system.switch_cpus_1.iew.iewBlockCycles          9497                       # Number of cycles IEW is blocking
system.switch_cpus_1.iew.iewDispLoadInsts      2066087                       # Number of dispatched load instructions
system.switch_cpus_1.iew.iewDispNonSpecInsts            0                       # Number of dispatched non-speculative instructions
system.switch_cpus_1.iew.iewDispSquashedInsts       396228                       # Number of squashed instructions skipped by dispatch
system.switch_cpus_1.iew.iewDispStoreInsts      1711265                       # Number of dispatched store instructions
system.switch_cpus_1.iew.iewDispatchedInsts     13527117                       # Number of instructions dispatched to IQ
system.switch_cpus_1.iew.iewExecLoadInsts      1948002                       # Number of load instructions executed
system.switch_cpus_1.iew.iewExecSquashedInsts       152605                       # Number of squashed instructions skipped in execute
system.switch_cpus_1.iew.iewExecutedInsts     11986957                       # Number of executed instructions
system.switch_cpus_1.iew.iewIQFullEvents           75                       # Number of times the IQ has become full, causing a stall
system.switch_cpus_1.iew.iewIdleCycles              0                       # Number of cycles IEW is idle
system.switch_cpus_1.iew.iewLSQFullEvents           10                       # Number of times the LSQ has become full, causing a stall
system.switch_cpus_1.iew.iewSquashCycles       516575                       # Number of cycles IEW is squashing
system.switch_cpus_1.iew.iewUnblockCycles          410                       # Number of cycles IEW is unblocking
system.switch_cpus_1.iew.lsq.thread.0.blockedLoads            0                       # Number of blocked loads due to partial load-store forwarding
system.switch_cpus_1.iew.lsq.thread.0.cacheBlocked        14771                       # Number of times an access to memory failed due to the cache being blocked
system.switch_cpus_1.iew.lsq.thread.0.forwLoads       145644                       # Number of loads that had data forwarded from stores
system.switch_cpus_1.iew.lsq.thread.0.ignoredResponses        10375                       # Number of memory responses ignored because the instruction is squashed
system.switch_cpus_1.iew.lsq.thread.0.invAddrLoads            0                       # Number of loads ignored due to an invalid address
system.switch_cpus_1.iew.lsq.thread.0.invAddrSwpfs            0                       # Number of software prefetches ignored due to an invalid address
system.switch_cpus_1.iew.lsq.thread.0.memOrderViolation        11550                       # Number of memory ordering violations
system.switch_cpus_1.iew.lsq.thread.0.rescheduledLoads            0                       # Number of loads that were rescheduled
system.switch_cpus_1.iew.lsq.thread.0.squashedLoads       459504                       # Number of loads squashed
system.switch_cpus_1.iew.lsq.thread.0.squashedStores       313843                       # Number of stores squashed
system.switch_cpus_1.iew.memOrderViolationEvents        11550                       # Number of memory order violations
system.switch_cpus_1.iew.predictedNotTakenIncorrect        27372                       # Number of branches that were predicted not taken incorrectly
system.switch_cpus_1.iew.predictedTakenIncorrect       147088                       # Number of branches that were predicted taken incorrectly
system.switch_cpus_1.ipc                     1.174058                       # IPC: Instructions Per Cycle
system.switch_cpus_1.ipc_total               1.174058                       # IPC: Total IPC of All Threads
system.switch_cpus_1.iq.ISSUE:FU_type_0::No_OpClass            0      0.00%      0.00% # Type of FU issued
system.switch_cpus_1.iq.ISSUE:FU_type_0::IntAlu      8517005     70.16%     70.16% # Type of FU issued
system.switch_cpus_1.iq.ISSUE:FU_type_0::IntMult            0      0.00%     70.16% # Type of FU issued
system.switch_cpus_1.iq.ISSUE:FU_type_0::IntDiv            0      0.00%     70.16% # Type of FU issued
system.switch_cpus_1.iq.ISSUE:FU_type_0::FloatAdd            0      0.00%     70.16% # Type of FU issued
system.switch_cpus_1.iq.ISSUE:FU_type_0::FloatCmp            0      0.00%     70.16% # Type of FU issued
system.switch_cpus_1.iq.ISSUE:FU_type_0::FloatCvt            0      0.00%     70.16% # Type of FU issued
system.switch_cpus_1.iq.ISSUE:FU_type_0::FloatMult            0      0.00%     70.16% # Type of FU issued
system.switch_cpus_1.iq.ISSUE:FU_type_0::FloatDiv            0      0.00%     70.16% # Type of FU issued
system.switch_cpus_1.iq.ISSUE:FU_type_0::FloatSqrt            0      0.00%     70.16% # Type of FU issued
system.switch_cpus_1.iq.ISSUE:FU_type_0::MemRead      1962410     16.17%     86.32% # Type of FU issued
system.switch_cpus_1.iq.ISSUE:FU_type_0::MemWrite      1660148     13.68%    100.00% # Type of FU issued
system.switch_cpus_1.iq.ISSUE:FU_type_0::IprAccess            0      0.00%    100.00% # Type of FU issued
system.switch_cpus_1.iq.ISSUE:FU_type_0::InstPrefetch            0      0.00%    100.00% # Type of FU issued
system.switch_cpus_1.iq.ISSUE:FU_type_0::total     12139563                       # Type of FU issued
system.switch_cpus_1.iq.ISSUE:fu_busy_cnt         4611                       # FU busy when requested
system.switch_cpus_1.iq.ISSUE:fu_busy_rate     0.000380                       # FU busy rate (busy events/executed inst)
system.switch_cpus_1.iq.ISSUE:fu_full::No_OpClass            0      0.00%      0.00% # attempts to use FU when none available
system.switch_cpus_1.iq.ISSUE:fu_full::IntAlu         3829     83.04%     83.04% # attempts to use FU when none available
system.switch_cpus_1.iq.ISSUE:fu_full::IntMult            0      0.00%     83.04% # attempts to use FU when none available
system.switch_cpus_1.iq.ISSUE:fu_full::IntDiv            0      0.00%     83.04% # attempts to use FU when none available
system.switch_cpus_1.iq.ISSUE:fu_full::FloatAdd            0      0.00%     83.04% # attempts to use FU when none available
system.switch_cpus_1.iq.ISSUE:fu_full::FloatCmp            0      0.00%     83.04% # attempts to use FU when none available
system.switch_cpus_1.iq.ISSUE:fu_full::FloatCvt            0      0.00%     83.04% # attempts to use FU when none available
system.switch_cpus_1.iq.ISSUE:fu_full::FloatMult            0      0.00%     83.04% # attempts to use FU when none available
system.switch_cpus_1.iq.ISSUE:fu_full::FloatDiv            0      0.00%     83.04% # attempts to use FU when none available
system.switch_cpus_1.iq.ISSUE:fu_full::FloatSqrt            0      0.00%     83.04% # attempts to use FU when none available
system.switch_cpus_1.iq.ISSUE:fu_full::MemRead          606     13.14%     96.18% # attempts to use FU when none available
system.switch_cpus_1.iq.ISSUE:fu_full::MemWrite          176      3.82%    100.00% # attempts to use FU when none available
system.switch_cpus_1.iq.ISSUE:fu_full::IprAccess            0      0.00%    100.00% # attempts to use FU when none available
system.switch_cpus_1.iq.ISSUE:fu_full::InstPrefetch            0      0.00%    100.00% # attempts to use FU when none available
system.switch_cpus_1.iq.ISSUE:issued_per_cycle::samples      8499545                       # Number of insts issued each cycle
system.switch_cpus_1.iq.ISSUE:issued_per_cycle::mean     1.428260                       # Number of insts issued each cycle
system.switch_cpus_1.iq.ISSUE:issued_per_cycle::stdev     1.317326                       # Number of insts issued each cycle
system.switch_cpus_1.iq.ISSUE:issued_per_cycle::underflows            0      0.00%      0.00% # Number of insts issued each cycle
system.switch_cpus_1.iq.ISSUE:issued_per_cycle::0      2386902     28.08%     28.08% # Number of insts issued each cycle
system.switch_cpus_1.iq.ISSUE:issued_per_cycle::1      2553300     30.04%     58.12% # Number of insts issued each cycle
system.switch_cpus_1.iq.ISSUE:issued_per_cycle::2      2325512     27.36%     85.48% # Number of insts issued each cycle
system.switch_cpus_1.iq.ISSUE:issued_per_cycle::3       202857      2.39%     87.87% # Number of insts issued each cycle
system.switch_cpus_1.iq.ISSUE:issued_per_cycle::4       865149     10.18%     98.05% # Number of insts issued each cycle
system.switch_cpus_1.iq.ISSUE:issued_per_cycle::5       134773      1.59%     99.63% # Number of insts issued each cycle
system.switch_cpus_1.iq.ISSUE:issued_per_cycle::6        25584      0.30%     99.94% # Number of insts issued each cycle
system.switch_cpus_1.iq.ISSUE:issued_per_cycle::7         5041      0.06%     99.99% # Number of insts issued each cycle
system.switch_cpus_1.iq.ISSUE:issued_per_cycle::8          427      0.01%    100.00% # Number of insts issued each cycle
system.switch_cpus_1.iq.ISSUE:issued_per_cycle::overflows            0      0.00%    100.00% # Number of insts issued each cycle
system.switch_cpus_1.iq.ISSUE:issued_per_cycle::min_value            0                       # Number of insts issued each cycle
system.switch_cpus_1.iq.ISSUE:issued_per_cycle::max_value            8                       # Number of insts issued each cycle
system.switch_cpus_1.iq.ISSUE:issued_per_cycle::total      8499545                       # Number of insts issued each cycle
system.switch_cpus_1.iq.ISSUE:rate           1.425255                       # Inst issue rate
system.switch_cpus_1.iq.iqInstsAdded         12641474                       # Number of instructions added to the IQ (excludes non-spec)
system.switch_cpus_1.iq.iqInstsIssued        12139563                       # Number of instructions issued
system.switch_cpus_1.iq.iqSquashedInstsExamined      2359136                       # Number of squashed instructions iterated over during squash; mainly for profiling
system.switch_cpus_1.iq.iqSquashedInstsIssued         1707                       # Number of squashed instructions issued
system.switch_cpus_1.iq.iqSquashedOperandsExamined       920590                       # Number of squashed operands that are examined and possibly removed from graph
system.switch_cpus_1.itb.data_accesses              0                       # DTB accesses
system.switch_cpus_1.itb.data_acv                   0                       # DTB access violations
system.switch_cpus_1.itb.data_hits                  0                       # DTB hits
system.switch_cpus_1.itb.data_misses                0                       # DTB misses
system.switch_cpus_1.itb.fetch_accesses       2283515                       # ITB accesses
system.switch_cpus_1.itb.fetch_acv                  0                       # ITB acv
system.switch_cpus_1.itb.fetch_hits           2283514                       # ITB hits
system.switch_cpus_1.itb.fetch_misses               1                       # ITB misses
system.switch_cpus_1.itb.read_accesses              0                       # DTB read accesses
system.switch_cpus_1.itb.read_acv                   0                       # DTB read access violations
system.switch_cpus_1.itb.read_hits                  0                       # DTB read hits
system.switch_cpus_1.itb.read_misses                0                       # DTB read misses
system.switch_cpus_1.itb.write_accesses             0                       # DTB write accesses
system.switch_cpus_1.itb.write_acv                  0                       # DTB write access violations
system.switch_cpus_1.itb.write_hits                 0                       # DTB write hits
system.switch_cpus_1.itb.write_misses               0                       # DTB write misses
system.switch_cpus_1.memDep0.conflictingLoads       608995                       # Number of conflicting loads.
system.switch_cpus_1.memDep0.conflictingStores         1468                       # Number of conflicting stores.
system.switch_cpus_1.memDep0.insertedLoads      2066087                       # Number of loads inserted to the mem dependence unit.
system.switch_cpus_1.memDep0.insertedStores      1711265                       # Number of stores inserted to the mem dependence unit.
system.switch_cpus_1.numCycles                8517468                       # number of cpu cycles simulated
system.switch_cpus_1.rename.RENAME:BlockCycles        70882                       # Number of cycles rename is blocking
system.switch_cpus_1.rename.RENAME:CommittedMaps      6978824                       # Number of HB maps that are committed
system.switch_cpus_1.rename.RENAME:IQFullEvents          230                       # Number of times rename has blocked due to IQ full
system.switch_cpus_1.rename.RENAME:IdleCycles      4643776                       # Number of cycles rename is idle
system.switch_cpus_1.rename.RENAME:LSQFullEvents        29557                       # Number of times rename has blocked due to LSQ full
system.switch_cpus_1.rename.RENAME:ROBFullEvents         3040                       # Number of times rename has blocked due to ROB full
system.switch_cpus_1.rename.RENAME:RenameLookups     19197959                       # Number of register rename lookups that rename has made
system.switch_cpus_1.rename.RENAME:RenamedInsts     14457624                       # Number of instructions processed by rename
system.switch_cpus_1.rename.RENAME:RenamedOperands      9470688                       # Number of destination operands rename has renamed
system.switch_cpus_1.rename.RENAME:RunCycles      3235665                       # Number of cycles rename is running
system.switch_cpus_1.rename.RENAME:SquashCycles       516575                       # Number of cycles rename is squashing
system.switch_cpus_1.rename.RENAME:UnblockCycles        32646                       # Number of cycles rename is unblocking
system.switch_cpus_1.rename.RENAME:UndoneMaps      2491850                       # Number of HB maps that are undone due to squashing
system.switch_cpus_1.rename.RENAME:serializeStallCycles            0                       # count of cycles rename stalled for serializing inst
system.switch_cpus_1.rename.RENAME:serializingInsts            0                       # count of serializing insts renamed
system.switch_cpus_1.rename.RENAME:skidInsts        61516                       # count of insts added to the skid buffer
system.switch_cpus_1.rename.RENAME:tempSerializingInsts            0                       # count of temporary serializing insts renamed
system.switch_cpus_1.timesIdled                   923                       # Number of times that the entire CPU went into an idle state and unscheduled itself

---------- End Simulation Statistics   ----------
