
---------- Begin Simulation Statistics ----------
host_inst_rate                                 298997                       # Simulator instruction rate (inst/s)
host_mem_usage                                 386500                       # Number of bytes of host memory used
host_seconds                                    66.89                       # Real time elapsed on the host
host_tick_rate                              906588328                       # Simulator tick rate (ticks/s)
sim_freq                                 1000000000000                       # Frequency of simulated ticks
sim_insts                                    20000008                       # Number of instructions simulated
sim_seconds                                  0.060642                       # Number of seconds simulated
sim_ticks                                 60642205500                       # Number of ticks simulated
system.cpu.dcache.ReadReq_accesses            7240744                       # number of ReadReq accesses(hits+misses)
system.cpu.dcache.ReadReq_avg_miss_latency 67530.244914                       # average ReadReq miss latency
system.cpu.dcache.ReadReq_avg_mshr_miss_latency 67363.056054                       # average ReadReq mshr miss latency
system.cpu.dcache.ReadReq_hits                6145502                       # number of ReadReq hits
system.cpu.dcache.ReadReq_miss_latency    73961960500                       # number of ReadReq miss cycles
system.cpu.dcache.ReadReq_miss_rate          0.151261                       # miss rate for ReadReq accesses
system.cpu.dcache.ReadReq_misses              1095242                       # number of ReadReq misses
system.cpu.dcache.ReadReq_mshr_hits            501436                       # number of ReadReq MSHR hits
system.cpu.dcache.ReadReq_mshr_miss_latency  40000519500                       # number of ReadReq MSHR miss cycles
system.cpu.dcache.ReadReq_mshr_miss_rate     0.082009                       # mshr miss rate for ReadReq accesses
system.cpu.dcache.ReadReq_mshr_misses          593805                       # number of ReadReq MSHR misses
system.cpu.dcache.WriteReq_accesses           1244859                       # number of WriteReq accesses(hits+misses)
system.cpu.dcache.WriteReq_avg_miss_latency 69947.848724                       # average WriteReq miss latency
system.cpu.dcache.WriteReq_avg_mshr_miss_latency 66923.547898                       # average WriteReq mshr miss latency
system.cpu.dcache.WriteReq_hits                840901                       # number of WriteReq hits
system.cpu.dcache.WriteReq_miss_latency   28255993075                       # number of WriteReq miss cycles
system.cpu.dcache.WriteReq_miss_rate         0.324501                       # miss rate for WriteReq accesses
system.cpu.dcache.WriteReq_misses              403958                       # number of WriteReq misses
system.cpu.dcache.WriteReq_mshr_hits           155554                       # number of WriteReq MSHR hits
system.cpu.dcache.WriteReq_mshr_miss_latency  16624076992                       # number of WriteReq MSHR miss cycles
system.cpu.dcache.WriteReq_mshr_miss_rate     0.199544                       # mshr miss rate for WriteReq accesses
system.cpu.dcache.WriteReq_mshr_misses         248404                       # number of WriteReq MSHR misses
system.cpu.dcache.avg_blocked_cycles::no_mshrs     no_value                       # average number of cycles each access was blocked
system.cpu.dcache.avg_blocked_cycles::no_targets 52010.737940                       # average number of cycles each access was blocked
system.cpu.dcache.avg_refs                  12.578437                       # Average number of references to valid blocks.
system.cpu.dcache.blocked::no_mshrs                 0                       # number of cycles access was blocked
system.cpu.dcache.blocked::no_targets           91876                       # number of cycles access was blocked
system.cpu.dcache.blocked_cycles::no_mshrs            0                       # number of cycles access was blocked
system.cpu.dcache.blocked_cycles::no_targets   4778538559                       # number of cycles access was blocked
system.cpu.dcache.cache_copies                      0                       # number of cache copies performed
system.cpu.dcache.demand_accesses             8485603                       # number of demand (read+write) accesses
system.cpu.dcache.demand_avg_miss_latency 68181.665939                       # average overall miss latency
system.cpu.dcache.demand_avg_mshr_miss_latency 67233.426017                       # average overall mshr miss latency
system.cpu.dcache.demand_hits                 6986403                       # number of demand (read+write) hits
system.cpu.dcache.demand_miss_latency    102217953575                       # number of demand (read+write) miss cycles
system.cpu.dcache.demand_miss_rate           0.176676                       # miss rate for demand accesses
system.cpu.dcache.demand_misses               1499200                       # number of demand (read+write) misses
system.cpu.dcache.demand_mshr_hits             656990                       # number of demand (read+write) MSHR hits
system.cpu.dcache.demand_mshr_miss_latency  56624596492                       # number of demand (read+write) MSHR miss cycles
system.cpu.dcache.demand_mshr_miss_rate      0.099252                       # mshr miss rate for demand accesses
system.cpu.dcache.demand_mshr_misses           842209                       # number of demand (read+write) MSHR misses
system.cpu.dcache.fast_writes                       0                       # number of fast writes performed
system.cpu.dcache.mshr_cap_events                   0                       # number of times MSHR cap was activated
system.cpu.dcache.no_allocate_misses                0                       # Number of misses that were no-allocate
system.cpu.dcache.occ_%::0                   0.997651                       # Average percentage of cache occupancy
system.cpu.dcache.occ_blocks::0           1021.594622                       # Average occupied blocks per context
system.cpu.dcache.overall_accesses            8485603                       # number of overall (read+write) accesses
system.cpu.dcache.overall_avg_miss_latency 68181.665939                       # average overall miss latency
system.cpu.dcache.overall_avg_mshr_miss_latency 67233.426017                       # average overall mshr miss latency
system.cpu.dcache.overall_avg_mshr_uncacheable_latency     no_value                       # average overall mshr uncacheable latency
system.cpu.dcache.overall_hits                6986403                       # number of overall hits
system.cpu.dcache.overall_miss_latency   102217953575                       # number of overall miss cycles
system.cpu.dcache.overall_miss_rate          0.176676                       # miss rate for overall accesses
system.cpu.dcache.overall_misses              1499200                       # number of overall misses
system.cpu.dcache.overall_mshr_hits            656990                       # number of overall MSHR hits
system.cpu.dcache.overall_mshr_miss_latency  56624596492                       # number of overall MSHR miss cycles
system.cpu.dcache.overall_mshr_miss_rate     0.099252                       # mshr miss rate for overall accesses
system.cpu.dcache.overall_mshr_misses          842209                       # number of overall MSHR misses
system.cpu.dcache.overall_mshr_uncacheable_latency            0                       # number of overall MSHR uncacheable cycles
system.cpu.dcache.overall_mshr_uncacheable_misses            0                       # number of overall MSHR uncacheable misses
system.cpu.dcache.prefetch_accuracy          no_value                       # ratio of good prefetches to total prefetches
system.cpu.dcache.prefetch_hits                     0                       # number of prefetched blocks that were accessed
system.cpu.dcache.replacements                 592793                       # number of replacements
system.cpu.dcache.sampled_refs                 593817                       # Sample count of references to valid blocks.
system.cpu.dcache.soft_prefetch_mshr_full            0                       # number of mshr full events for SW prefetching instrutions
system.cpu.dcache.tagsinuse               1021.594622                       # Cycle average of tags in use
system.cpu.dcache.total_refs                  7469290                       # Total number of references to valid blocks.
system.cpu.dcache.warmup_cycle           501368000000                       # Cycle when the warmup percentage was hit.
system.cpu.dcache.writebacks                   248402                       # number of writebacks
system.cpu.dtb.data_accesses                        1                       # DTB accesses
system.cpu.dtb.data_acv                             0                       # DTB access violations
system.cpu.dtb.data_hits                            1                       # DTB hits
system.cpu.dtb.data_misses                          0                       # DTB misses
system.cpu.dtb.fetch_accesses                       0                       # ITB accesses
system.cpu.dtb.fetch_acv                            0                       # ITB acv
system.cpu.dtb.fetch_hits                           0                       # ITB hits
system.cpu.dtb.fetch_misses                         0                       # ITB misses
system.cpu.dtb.read_accesses                        1                       # DTB read accesses
system.cpu.dtb.read_acv                             0                       # DTB read access violations
system.cpu.dtb.read_hits                            1                       # DTB read hits
system.cpu.dtb.read_misses                          0                       # DTB read misses
system.cpu.dtb.write_accesses                       0                       # DTB write accesses
system.cpu.dtb.write_acv                            0                       # DTB write access violations
system.cpu.dtb.write_hits                           0                       # DTB write hits
system.cpu.dtb.write_misses                         0                       # DTB write misses
system.cpu.icache.ReadReq_accesses           13256238                       # number of ReadReq accesses(hits+misses)
system.cpu.icache.ReadReq_avg_miss_latency 66606.083086                       # average ReadReq miss latency
system.cpu.icache.ReadReq_avg_mshr_miss_latency 64437.101911                       # average ReadReq mshr miss latency
system.cpu.icache.ReadReq_hits               13255564                       # number of ReadReq hits
system.cpu.icache.ReadReq_miss_latency       44892500                       # number of ReadReq miss cycles
system.cpu.icache.ReadReq_miss_rate          0.000051                       # miss rate for ReadReq accesses
system.cpu.icache.ReadReq_misses                  674                       # number of ReadReq misses
system.cpu.icache.ReadReq_mshr_hits                44                       # number of ReadReq MSHR hits
system.cpu.icache.ReadReq_mshr_miss_latency     40466500                       # number of ReadReq MSHR miss cycles
system.cpu.icache.ReadReq_mshr_miss_rate     0.000047                       # mshr miss rate for ReadReq accesses
system.cpu.icache.ReadReq_mshr_misses             628                       # number of ReadReq MSHR misses
system.cpu.icache.avg_blocked_cycles::no_mshrs     no_value                       # average number of cycles each access was blocked
system.cpu.icache.avg_blocked_cycles::no_targets 50083.333333                       # average number of cycles each access was blocked
system.cpu.icache.avg_refs               21040.577778                       # Average number of references to valid blocks.
system.cpu.icache.blocked::no_mshrs                 0                       # number of cycles access was blocked
system.cpu.icache.blocked::no_targets               6                       # number of cycles access was blocked
system.cpu.icache.blocked_cycles::no_mshrs            0                       # number of cycles access was blocked
system.cpu.icache.blocked_cycles::no_targets       300500                       # number of cycles access was blocked
system.cpu.icache.cache_copies                      0                       # number of cache copies performed
system.cpu.icache.demand_accesses            13256238                       # number of demand (read+write) accesses
system.cpu.icache.demand_avg_miss_latency 66606.083086                       # average overall miss latency
system.cpu.icache.demand_avg_mshr_miss_latency 64437.101911                       # average overall mshr miss latency
system.cpu.icache.demand_hits                13255564                       # number of demand (read+write) hits
system.cpu.icache.demand_miss_latency        44892500                       # number of demand (read+write) miss cycles
system.cpu.icache.demand_miss_rate           0.000051                       # miss rate for demand accesses
system.cpu.icache.demand_misses                   674                       # number of demand (read+write) misses
system.cpu.icache.demand_mshr_hits                 44                       # number of demand (read+write) MSHR hits
system.cpu.icache.demand_mshr_miss_latency     40466500                       # number of demand (read+write) MSHR miss cycles
system.cpu.icache.demand_mshr_miss_rate      0.000047                       # mshr miss rate for demand accesses
system.cpu.icache.demand_mshr_misses              628                       # number of demand (read+write) MSHR misses
system.cpu.icache.fast_writes                       0                       # number of fast writes performed
system.cpu.icache.mshr_cap_events                   0                       # number of times MSHR cap was activated
system.cpu.icache.no_allocate_misses                0                       # Number of misses that were no-allocate
system.cpu.icache.occ_%::0                   0.709958                       # Average percentage of cache occupancy
system.cpu.icache.occ_blocks::0            363.498628                       # Average occupied blocks per context
system.cpu.icache.overall_accesses           13256238                       # number of overall (read+write) accesses
system.cpu.icache.overall_avg_miss_latency 66606.083086                       # average overall miss latency
system.cpu.icache.overall_avg_mshr_miss_latency 64437.101911                       # average overall mshr miss latency
system.cpu.icache.overall_avg_mshr_uncacheable_latency     no_value                       # average overall mshr uncacheable latency
system.cpu.icache.overall_hits               13255564                       # number of overall hits
system.cpu.icache.overall_miss_latency       44892500                       # number of overall miss cycles
system.cpu.icache.overall_miss_rate          0.000051                       # miss rate for overall accesses
system.cpu.icache.overall_misses                  674                       # number of overall misses
system.cpu.icache.overall_mshr_hits                44                       # number of overall MSHR hits
system.cpu.icache.overall_mshr_miss_latency     40466500                       # number of overall MSHR miss cycles
system.cpu.icache.overall_mshr_miss_rate     0.000047                       # mshr miss rate for overall accesses
system.cpu.icache.overall_mshr_misses             628                       # number of overall MSHR misses
system.cpu.icache.overall_mshr_uncacheable_latency            0                       # number of overall MSHR uncacheable cycles
system.cpu.icache.overall_mshr_uncacheable_misses            0                       # number of overall MSHR uncacheable misses
system.cpu.icache.prefetch_accuracy          no_value                       # ratio of good prefetches to total prefetches
system.cpu.icache.prefetch_hits                     0                       # number of prefetched blocks that were accessed
system.cpu.icache.replacements                    118                       # number of replacements
system.cpu.icache.sampled_refs                    630                       # Sample count of references to valid blocks.
system.cpu.icache.soft_prefetch_mshr_full            0                       # number of mshr full events for SW prefetching instrutions
system.cpu.icache.tagsinuse                363.498628                       # Cycle average of tags in use
system.cpu.icache.total_refs                 13255564                       # Total number of references to valid blocks.
system.cpu.icache.warmup_cycle           558587995000                       # Cycle when the warmup percentage was hit.
system.cpu.icache.writebacks                        0                       # number of writebacks
system.cpu.idle_fraction                            0                       # Percentage of idle cycles
system.cpu.itb.data_accesses                        0                       # DTB accesses
system.cpu.itb.data_acv                             0                       # DTB access violations
system.cpu.itb.data_hits                            0                       # DTB hits
system.cpu.itb.data_misses                          0                       # DTB misses
system.cpu.itb.fetch_accesses                       2                       # ITB accesses
system.cpu.itb.fetch_acv                            0                       # ITB acv
system.cpu.itb.fetch_hits                           2                       # ITB hits
system.cpu.itb.fetch_misses                         0                       # ITB misses
system.cpu.itb.read_accesses                        0                       # DTB read accesses
system.cpu.itb.read_acv                             0                       # DTB read access violations
system.cpu.itb.read_hits                            0                       # DTB read hits
system.cpu.itb.read_misses                          0                       # DTB read misses
system.cpu.itb.write_accesses                       0                       # DTB write accesses
system.cpu.itb.write_acv                            0                       # DTB write access violations
system.cpu.itb.write_hits                           0                       # DTB write hits
system.cpu.itb.write_misses                         0                       # DTB write misses
system.cpu.not_idle_fraction                        1                       # Percentage of non-idle cycles
system.cpu.numCycles                                2                       # number of cpu cycles simulated
system.cpu.num_insts                                2                       # Number of instructions executed
system.cpu.num_refs                                 1                       # Number of memory references
system.cpu.workload.PROG:num_syscalls               0                       # Number of system calls
system.l2.HardPFReq_avg_mshr_miss_latency 53864.463592                       # average HardPFReq mshr miss latency
system.l2.HardPFReq_mshr_miss_latency     11016737145                       # number of HardPFReq MSHR miss cycles
system.l2.HardPFReq_mshr_miss_rate                inf                       # mshr miss rate for HardPFReq accesses
system.l2.HardPFReq_mshr_misses                204527                       # number of HardPFReq MSHR misses
system.l2.ReadExReq_accesses                       11                       # number of ReadExReq accesses(hits+misses)
system.l2.ReadExReq_avg_miss_latency     70045.454545                       # average ReadExReq miss latency
system.l2.ReadExReq_avg_mshr_miss_latency 54681.818182                       # average ReadExReq mshr miss latency
system.l2.ReadExReq_miss_latency               770500                       # number of ReadExReq miss cycles
system.l2.ReadExReq_miss_rate                       1                       # miss rate for ReadExReq accesses
system.l2.ReadExReq_misses                         11                       # number of ReadExReq misses
system.l2.ReadExReq_mshr_miss_latency          601500                       # number of ReadExReq MSHR miss cycles
system.l2.ReadExReq_mshr_miss_rate                  1                       # mshr miss rate for ReadExReq accesses
system.l2.ReadExReq_mshr_misses                    11                       # number of ReadExReq MSHR misses
system.l2.ReadReq_accesses                     594436                       # number of ReadReq accesses(hits+misses)
system.l2.ReadReq_avg_miss_latency       70278.345062                       # average ReadReq miss latency
system.l2.ReadReq_avg_mshr_miss_latency  55391.408548                       # average ReadReq mshr miss latency
system.l2.ReadReq_hits                          40530                       # number of ReadReq hits
system.l2.ReadReq_miss_latency            38927597000                       # number of ReadReq miss cycles
system.l2.ReadReq_miss_rate                  0.931818                       # miss rate for ReadReq accesses
system.l2.ReadReq_misses                       553906                       # number of ReadReq misses
system.l2.ReadReq_mshr_hits                     13971                       # number of ReadReq MSHR hits
system.l2.ReadReq_mshr_miss_latency       29907594000                       # number of ReadReq MSHR miss cycles
system.l2.ReadReq_mshr_miss_rate             0.908310                       # mshr miss rate for ReadReq accesses
system.l2.ReadReq_mshr_misses                  539932                       # number of ReadReq MSHR misses
system.l2.UpgradeReq_accesses                  248393                       # number of UpgradeReq accesses(hits+misses)
system.l2.UpgradeReq_avg_miss_latency    65896.390397                       # average UpgradeReq miss latency
system.l2.UpgradeReq_avg_mshr_miss_latency 50250.955546                       # average UpgradeReq mshr miss latency
system.l2.UpgradeReq_miss_latency         16368202100                       # number of UpgradeReq miss cycles
system.l2.UpgradeReq_miss_rate                      1                       # miss rate for UpgradeReq accesses
system.l2.UpgradeReq_misses                    248393                       # number of UpgradeReq misses
system.l2.UpgradeReq_mshr_miss_latency    12481985601                       # number of UpgradeReq MSHR miss cycles
system.l2.UpgradeReq_mshr_miss_rate                 1                       # mshr miss rate for UpgradeReq accesses
system.l2.UpgradeReq_mshr_misses               248393                       # number of UpgradeReq MSHR misses
system.l2.Writeback_accesses                   248402                       # number of Writeback accesses(hits+misses)
system.l2.Writeback_hits                       248402                       # number of Writeback hits
system.l2.avg_blocked_cycles::no_mshrs       no_value                       # average number of cycles each access was blocked
system.l2.avg_blocked_cycles::no_targets     no_value                       # average number of cycles each access was blocked
system.l2.avg_refs                           0.732177                       # Average number of references to valid blocks.
system.l2.blocked::no_mshrs                         0                       # number of cycles access was blocked
system.l2.blocked::no_targets                       0                       # number of cycles access was blocked
system.l2.blocked_cycles::no_mshrs                  0                       # number of cycles access was blocked
system.l2.blocked_cycles::no_targets                0                       # number of cycles access was blocked
system.l2.cache_copies                              0                       # number of cache copies performed
system.l2.demand_accesses                      594447                       # number of demand (read+write) accesses
system.l2.demand_avg_miss_latency        70278.340437                       # average overall miss latency
system.l2.demand_avg_mshr_miss_latency   55391.394092                       # average overall mshr miss latency
system.l2.demand_hits                           40530                       # number of demand (read+write) hits
system.l2.demand_miss_latency             38928367500                       # number of demand (read+write) miss cycles
system.l2.demand_miss_rate                   0.931819                       # miss rate for demand accesses
system.l2.demand_misses                        553917                       # number of demand (read+write) misses
system.l2.demand_mshr_hits                      13971                       # number of demand (read+write) MSHR hits
system.l2.demand_mshr_miss_latency        29908195500                       # number of demand (read+write) MSHR miss cycles
system.l2.demand_mshr_miss_rate              0.908311                       # mshr miss rate for demand accesses
system.l2.demand_mshr_misses                   539943                       # number of demand (read+write) MSHR misses
system.l2.fast_writes                               0                       # number of fast writes performed
system.l2.mshr_cap_events                           0                       # number of times MSHR cap was activated
system.l2.no_allocate_misses                        0                       # Number of misses that were no-allocate
system.l2.occ_%::0                           0.554208                       # Average percentage of cache occupancy
system.l2.occ_%::1                           0.122948                       # Average percentage of cache occupancy
system.l2.occ_blocks::0                   9080.151774                       # Average occupied blocks per context
system.l2.occ_blocks::1                   2014.383110                       # Average occupied blocks per context
system.l2.overall_accesses                     594447                       # number of overall (read+write) accesses
system.l2.overall_avg_miss_latency       70278.340437                       # average overall miss latency
system.l2.overall_avg_mshr_miss_latency  54971.903025                       # average overall mshr miss latency
system.l2.overall_avg_mshr_uncacheable_latency     no_value                       # average overall mshr uncacheable latency
system.l2.overall_hits                          40530                       # number of overall hits
system.l2.overall_miss_latency            38928367500                       # number of overall miss cycles
system.l2.overall_miss_rate                  0.931819                       # miss rate for overall accesses
system.l2.overall_misses                       553917                       # number of overall misses
system.l2.overall_mshr_hits                     13971                       # number of overall MSHR hits
system.l2.overall_mshr_miss_latency       40924932645                       # number of overall MSHR miss cycles
system.l2.overall_mshr_miss_rate             1.252374                       # mshr miss rate for overall accesses
system.l2.overall_mshr_misses                  744470                       # number of overall MSHR misses
system.l2.overall_mshr_uncacheable_latency            0                       # number of overall MSHR uncacheable cycles
system.l2.overall_mshr_uncacheable_misses            0                       # number of overall MSHR uncacheable misses
system.l2.prefetch_accuracy                  0.920284                       # ratio of good prefetches to total prefetches
system.l2.prefetch_hits                        188223                       # number of prefetched blocks that were accessed
system.l2.prefetcher.num_hwpf_already_in_prefetcher        43901                       # number of hwpf that were already in the prefetch queue
system.l2.prefetcher.num_hwpf_evicted               0                       # number of hwpf removed due to no buffer left
system.l2.prefetcher.num_hwpf_identified       269224                       # number of hwpf identified
system.l2.prefetcher.num_hwpf_issued           204527                       # number of hwpf issued
system.l2.prefetcher.num_hwpf_removed_MSHR_hit        20796                       # number of hwpf removed because MSHR allocated
system.l2.prefetcher.num_hwpf_span_page             0                       # number of hwpf spanning a virtual page
system.l2.prefetcher.num_hwpf_squashed_from_miss            0                       # number of hwpf that got squashed due to a miss aborting calculation time
system.l2.replacements                         580203                       # number of replacements
system.l2.sampled_refs                         596587                       # Sample count of references to valid blocks.
system.l2.soft_prefetch_mshr_full                   0                       # number of mshr full events for SW prefetching instrutions
system.l2.tagsinuse                      11094.534884                       # Cycle average of tags in use
system.l2.total_refs                           436807                       # Total number of references to valid blocks.
system.l2.warmup_cycle                   559749835000                       # Cycle when the warmup percentage was hit.
system.l2.writebacks                           248402                       # number of writebacks
system.switch_cpus.dtb.data_accesses          4326978                       # DTB accesses
system.switch_cpus.dtb.data_acv                     0                       # DTB access violations
system.switch_cpus.dtb.data_hits              4306851                       # DTB hits
system.switch_cpus.dtb.data_misses              20127                       # DTB misses
system.switch_cpus.dtb.fetch_accesses               0                       # ITB accesses
system.switch_cpus.dtb.fetch_acv                    0                       # ITB acv
system.switch_cpus.dtb.fetch_hits                   0                       # ITB hits
system.switch_cpus.dtb.fetch_misses                 0                       # ITB misses
system.switch_cpus.dtb.read_accesses          3637064                       # DTB read accesses
system.switch_cpus.dtb.read_acv                     0                       # DTB read access violations
system.switch_cpus.dtb.read_hits              3616995                       # DTB read hits
system.switch_cpus.dtb.read_misses              20069                       # DTB read misses
system.switch_cpus.dtb.write_accesses          689914                       # DTB write accesses
system.switch_cpus.dtb.write_acv                    0                       # DTB write access violations
system.switch_cpus.dtb.write_hits              689856                       # DTB write hits
system.switch_cpus.dtb.write_misses                58                       # DTB write misses
system.switch_cpus.idle_fraction                    1                       # Percentage of idle cycles
system.switch_cpus.itb.data_accesses                0                       # DTB accesses
system.switch_cpus.itb.data_acv                     0                       # DTB access violations
system.switch_cpus.itb.data_hits                    0                       # DTB hits
system.switch_cpus.itb.data_misses                  0                       # DTB misses
system.switch_cpus.itb.fetch_accesses        10020134                       # ITB accesses
system.switch_cpus.itb.fetch_acv                    0                       # ITB acv
system.switch_cpus.itb.fetch_hits            10020129                       # ITB hits
system.switch_cpus.itb.fetch_misses                 5                       # ITB misses
system.switch_cpus.itb.read_accesses                0                       # DTB read accesses
system.switch_cpus.itb.read_acv                     0                       # DTB read access violations
system.switch_cpus.itb.read_hits                    0                       # DTB read hits
system.switch_cpus.itb.read_misses                  0                       # DTB read misses
system.switch_cpus.itb.write_accesses               0                       # DTB write accesses
system.switch_cpus.itb.write_acv                    0                       # DTB write access violations
system.switch_cpus.itb.write_hits                   0                       # DTB write hits
system.switch_cpus.itb.write_misses                 0                       # DTB write misses
system.switch_cpus.not_idle_fraction                0                       # Percentage of non-idle cycles
system.switch_cpus.numCycles                 96800179                       # number of cpu cycles simulated
system.switch_cpus.num_insts                 10000001                       # Number of instructions executed
system.switch_cpus.num_refs                   4821338                       # Number of memory references
system.switch_cpus_1.BPredUnit.BTBCorrect            0                       # Number of correct BTB predictions (this stat may not work properly.
system.switch_cpus_1.BPredUnit.BTBHits         112194                       # Number of BTB hits
system.switch_cpus_1.BPredUnit.BTBLookups       158483                       # Number of BTB lookups
system.switch_cpus_1.BPredUnit.RASInCorrect            1                       # Number of incorrect RAS predictions.
system.switch_cpus_1.BPredUnit.condIncorrect        15077                       # Number of conditional branches incorrect
system.switch_cpus_1.BPredUnit.condPredicted       199336                       # Number of conditional branches predicted
system.switch_cpus_1.BPredUnit.lookups         212341                       # Number of BP lookups
system.switch_cpus_1.BPredUnit.usedRAS             10                       # Number of times the RAS was used to get a target.
system.switch_cpus_1.commit.COM:branches       149702                       # Number of branches committed
system.switch_cpus_1.commit.COM:bw_lim_events       737262                       # number cycles where commit BW limit reached
system.switch_cpus_1.commit.COM:bw_limited            0                       # number of insts not committed due to BW limits
system.switch_cpus_1.commit.COM:committed_per_cycle::samples     20057377                       # Number of insts commited each cycle
system.switch_cpus_1.commit.COM:committed_per_cycle::mean     0.500554                       # Number of insts commited each cycle
system.switch_cpus_1.commit.COM:committed_per_cycle::stdev     1.724456                       # Number of insts commited each cycle
system.switch_cpus_1.commit.COM:committed_per_cycle::underflows            0      0.00%      0.00% # Number of insts commited each cycle
system.switch_cpus_1.commit.COM:committed_per_cycle::0     18053469     90.01%     90.01% # Number of insts commited each cycle
system.switch_cpus_1.commit.COM:committed_per_cycle::1       241601      1.20%     91.21% # Number of insts commited each cycle
system.switch_cpus_1.commit.COM:committed_per_cycle::2       249662      1.24%     92.46% # Number of insts commited each cycle
system.switch_cpus_1.commit.COM:committed_per_cycle::3       258739      1.29%     93.75% # Number of insts commited each cycle
system.switch_cpus_1.commit.COM:committed_per_cycle::4       205948      1.03%     94.78% # Number of insts commited each cycle
system.switch_cpus_1.commit.COM:committed_per_cycle::5       130737      0.65%     95.43% # Number of insts commited each cycle
system.switch_cpus_1.commit.COM:committed_per_cycle::6       112632      0.56%     95.99% # Number of insts commited each cycle
system.switch_cpus_1.commit.COM:committed_per_cycle::7        67327      0.34%     96.32% # Number of insts commited each cycle
system.switch_cpus_1.commit.COM:committed_per_cycle::8       737262      3.68%    100.00% # Number of insts commited each cycle
system.switch_cpus_1.commit.COM:committed_per_cycle::overflows            0      0.00%    100.00% # Number of insts commited each cycle
system.switch_cpus_1.commit.COM:committed_per_cycle::min_value            0                       # Number of insts commited each cycle
system.switch_cpus_1.commit.COM:committed_per_cycle::max_value            8                       # Number of insts commited each cycle
system.switch_cpus_1.commit.COM:committed_per_cycle::total     20057377                       # Number of insts commited each cycle
system.switch_cpus_1.commit.COM:count        10039796                       # Number of instructions committed
system.switch_cpus_1.commit.COM:loads         3597948                       # Number of loads committed
system.switch_cpus_1.commit.COM:membars             0                       # Number of memory barriers committed
system.switch_cpus_1.commit.COM:refs          4152951                       # Number of memory references committed
system.switch_cpus_1.commit.COM:swp_count            0                       # Number of s/w prefetches committed
system.switch_cpus_1.commit.branchMispredicts        15074                       # The number of times a branch was mispredicted
system.switch_cpus_1.commit.commitCommittedInsts     10039796                       # The number of committed instructions
system.switch_cpus_1.commit.commitSquashedInsts      9445827                       # The number of squashed insts skipped by commit
system.switch_cpus_1.committedInsts          10000005                       # Number of Instructions Simulated
system.switch_cpus_1.committedInsts_total     10000005                       # Number of Instructions Simulated
system.switch_cpus_1.cpi                     2.448422                       # CPI: Cycles Per Instruction
system.switch_cpus_1.cpi_total               2.448422                       # CPI: Total CPI of All Threads
system.switch_cpus_1.decode.DECODE:BlockedCycles      9285575                       # Number of cycles decode is blocked
system.switch_cpus_1.decode.DECODE:BranchMispred            3                       # Number of times decode detected a branch misprediction
system.switch_cpus_1.decode.DECODE:BranchResolved        12992                       # Number of times decode resolved a branch
system.switch_cpus_1.decode.DECODE:DecodedInsts     32089996                       # Number of instructions handled by decode
system.switch_cpus_1.decode.DECODE:IdleCycles      6360556                       # Number of cycles decode is idle
system.switch_cpus_1.decode.DECODE:RunCycles      4346589                       # Number of cycles decode is running
system.switch_cpus_1.decode.DECODE:SquashCycles      1562467                       # Number of cycles decode is squashing
system.switch_cpus_1.decode.DECODE:SquashedInsts           12                       # Number of squashed instructions handled by decode
system.switch_cpus_1.decode.DECODE:UnblockCycles        64656                       # Number of cycles decode is unblocking
system.switch_cpus_1.dtb.data_accesses        6881640                       # DTB accesses
system.switch_cpus_1.dtb.data_acv                   0                       # DTB access violations
system.switch_cpus_1.dtb.data_hits            6849918                       # DTB hits
system.switch_cpus_1.dtb.data_misses            31722                       # DTB misses
system.switch_cpus_1.dtb.fetch_accesses             0                       # ITB accesses
system.switch_cpus_1.dtb.fetch_acv                  0                       # ITB acv
system.switch_cpus_1.dtb.fetch_hits                 0                       # ITB hits
system.switch_cpus_1.dtb.fetch_misses               0                       # ITB misses
system.switch_cpus_1.dtb.read_accesses        6222231                       # DTB read accesses
system.switch_cpus_1.dtb.read_acv                   0                       # DTB read access violations
system.switch_cpus_1.dtb.read_hits            6190532                       # DTB read hits
system.switch_cpus_1.dtb.read_misses            31699                       # DTB read misses
system.switch_cpus_1.dtb.write_accesses        659409                       # DTB write accesses
system.switch_cpus_1.dtb.write_acv                  0                       # DTB write access violations
system.switch_cpus_1.dtb.write_hits            659386                       # DTB write hits
system.switch_cpus_1.dtb.write_misses              23                       # DTB write misses
system.switch_cpus_1.fetch.Branches            212341                       # Number of branches that fetch encountered
system.switch_cpus_1.fetch.CacheLines         3236107                       # Number of cache lines fetched
system.switch_cpus_1.fetch.Cycles             7688234                       # Number of cycles fetch has run and was not squashing or blocked
system.switch_cpus_1.fetch.IcacheSquashes       381917                       # Number of outstanding Icache misses that were squashed
system.switch_cpus_1.fetch.Insts             32406706                       # Number of instructions fetch has processed
system.switch_cpus_1.fetch.SquashCycles        876128                       # Number of cycles fetch has spent squashing
system.switch_cpus_1.fetch.branchRate        0.008673                       # Number of branch fetches per cycle
system.switch_cpus_1.fetch.icacheStallCycles      3236107                       # Number of cycles fetch is stalled on an Icache miss
system.switch_cpus_1.fetch.predictedBranches       112204                       # Number of branches that fetch has predicted taken
system.switch_cpus_1.fetch.rate              1.323575                       # Number of inst fetches per cycle
system.switch_cpus_1.fetch.rateDist::samples     21619844                       # Number of instructions fetched each cycle (Total)
system.switch_cpus_1.fetch.rateDist::mean     1.498933                       # Number of instructions fetched each cycle (Total)
system.switch_cpus_1.fetch.rateDist::stdev     3.039922                       # Number of instructions fetched each cycle (Total)
system.switch_cpus_1.fetch.rateDist::underflows            0      0.00%      0.00% # Number of instructions fetched each cycle (Total)
system.switch_cpus_1.fetch.rateDist::0       17167731     79.41%     79.41% # Number of instructions fetched each cycle (Total)
system.switch_cpus_1.fetch.rateDist::1          58121      0.27%     79.68% # Number of instructions fetched each cycle (Total)
system.switch_cpus_1.fetch.rateDist::2         133791      0.62%     80.29% # Number of instructions fetched each cycle (Total)
system.switch_cpus_1.fetch.rateDist::3         110980      0.51%     80.81% # Number of instructions fetched each cycle (Total)
system.switch_cpus_1.fetch.rateDist::4         160373      0.74%     81.55% # Number of instructions fetched each cycle (Total)
system.switch_cpus_1.fetch.rateDist::5         107286      0.50%     82.05% # Number of instructions fetched each cycle (Total)
system.switch_cpus_1.fetch.rateDist::6         171171      0.79%     82.84% # Number of instructions fetched each cycle (Total)
system.switch_cpus_1.fetch.rateDist::7         140013      0.65%     83.49% # Number of instructions fetched each cycle (Total)
system.switch_cpus_1.fetch.rateDist::8        3570378     16.51%    100.00% # Number of instructions fetched each cycle (Total)
system.switch_cpus_1.fetch.rateDist::overflows            0      0.00%    100.00% # Number of instructions fetched each cycle (Total)
system.switch_cpus_1.fetch.rateDist::min_value            0                       # Number of instructions fetched each cycle (Total)
system.switch_cpus_1.fetch.rateDist::max_value            8                       # Number of instructions fetched each cycle (Total)
system.switch_cpus_1.fetch.rateDist::total     21619844                       # Number of instructions fetched each cycle (Total)
system.switch_cpus_1.idleCycles               2864387                       # Total number of cycles that the CPU has spent unscheduled due to idling
system.switch_cpus_1.iew.EXEC:branches         159245                       # Number of branches executed
system.switch_cpus_1.iew.EXEC:nop               43045                       # number of nop insts executed
system.switch_cpus_1.iew.EXEC:rate           0.572681                       # Inst execution rate
system.switch_cpus_1.iew.EXEC:refs            6994814                       # number of memory reference insts executed
system.switch_cpus_1.iew.EXEC:stores           659409                       # Number of stores executed
system.switch_cpus_1.iew.EXEC:swp                   0                       # number of swp insts executed
system.switch_cpus_1.iew.WB:consumers         6381498                       # num instructions consuming a value
system.switch_cpus_1.iew.WB:count            11396206                       # cumulative count of insts written-back
system.switch_cpus_1.iew.WB:fanout           0.842223                       # average fanout of values written-back
system.switch_cpus_1.iew.WB:penalized               0                       # number of instrctions required to write to 'other' IQ
system.switch_cpus_1.iew.WB:penalized_rate            0                       # fraction of instructions written-back that wrote to 'other' IQ
system.switch_cpus_1.iew.WB:producers         5374644                       # num instructions producing a value
system.switch_cpus_1.iew.WB:rate             0.465451                       # insts written-back per cycle
system.switch_cpus_1.iew.WB:sent             11430057                       # cumulative count of insts sent to commit
system.switch_cpus_1.iew.branchMispredicts        19828                       # Number of branch mispredicts detected at execute
system.switch_cpus_1.iew.iewBlockCycles       5723580                       # Number of cycles IEW is blocking
system.switch_cpus_1.iew.iewDispLoadInsts      7735996                       # Number of dispatched load instructions
system.switch_cpus_1.iew.iewDispNonSpecInsts            0                       # Number of dispatched non-speculative instructions
system.switch_cpus_1.iew.iewDispSquashedInsts      2609814                       # Number of squashed instructions skipped by dispatch
system.switch_cpus_1.iew.iewDispStoreInsts       971987                       # Number of dispatched store instructions
system.switch_cpus_1.iew.iewDispatchedInsts     19559430                       # Number of instructions dispatched to IQ
system.switch_cpus_1.iew.iewExecLoadInsts      6335405                       # Number of load instructions executed
system.switch_cpus_1.iew.iewExecSquashedInsts      1915747                       # Number of squashed instructions skipped in execute
system.switch_cpus_1.iew.iewExecutedInsts     14021660                       # Number of executed instructions
system.switch_cpus_1.iew.iewIQFullEvents        57232                       # Number of times the IQ has become full, causing a stall
system.switch_cpus_1.iew.iewIdleCycles              0                       # Number of cycles IEW is idle
system.switch_cpus_1.iew.iewLSQFullEvents         2799                       # Number of times the LSQ has become full, causing a stall
system.switch_cpus_1.iew.iewSquashCycles      1562467                       # Number of cycles IEW is squashing
system.switch_cpus_1.iew.iewUnblockCycles       135791                       # Number of cycles IEW is unblocking
system.switch_cpus_1.iew.lsq.thread.0.blockedLoads            0                       # Number of blocked loads due to partial load-store forwarding
system.switch_cpus_1.iew.lsq.thread.0.cacheBlocked      2582826                       # Number of times an access to memory failed due to the cache being blocked
system.switch_cpus_1.iew.lsq.thread.0.forwLoads         1978                       # Number of loads that had data forwarded from stores
system.switch_cpus_1.iew.lsq.thread.0.ignoredResponses            0                       # Number of memory responses ignored because the instruction is squashed
system.switch_cpus_1.iew.lsq.thread.0.invAddrLoads            0                       # Number of loads ignored due to an invalid address
system.switch_cpus_1.iew.lsq.thread.0.invAddrSwpfs            0                       # Number of software prefetches ignored due to an invalid address
system.switch_cpus_1.iew.lsq.thread.0.memOrderViolation         1207                       # Number of memory ordering violations
system.switch_cpus_1.iew.lsq.thread.0.rescheduledLoads            0                       # Number of loads that were rescheduled
system.switch_cpus_1.iew.lsq.thread.0.squashedLoads      4138024                       # Number of loads squashed
system.switch_cpus_1.iew.lsq.thread.0.squashedStores       416983                       # Number of stores squashed
system.switch_cpus_1.iew.memOrderViolationEvents         1207                       # Number of memory order violations
system.switch_cpus_1.iew.predictedNotTakenIncorrect         8544                       # Number of branches that were predicted not taken incorrectly
system.switch_cpus_1.iew.predictedTakenIncorrect        11284                       # Number of branches that were predicted taken incorrectly
system.switch_cpus_1.ipc                     0.408426                       # IPC: Instructions Per Cycle
system.switch_cpus_1.ipc_total               0.408426                       # IPC: Total IPC of All Threads
system.switch_cpus_1.iq.ISSUE:FU_type_0::No_OpClass            0      0.00%      0.00% # Type of FU issued
system.switch_cpus_1.iq.ISSUE:FU_type_0::IntAlu       873976      5.48%      5.48% # Type of FU issued
system.switch_cpus_1.iq.ISSUE:FU_type_0::IntMult         8171      0.05%      5.54% # Type of FU issued
system.switch_cpus_1.iq.ISSUE:FU_type_0::IntDiv            0      0.00%      5.54% # Type of FU issued
system.switch_cpus_1.iq.ISSUE:FU_type_0::FloatAdd      4465502     28.02%     33.55% # Type of FU issued
system.switch_cpus_1.iq.ISSUE:FU_type_0::FloatCmp            0      0.00%     33.55% # Type of FU issued
system.switch_cpus_1.iq.ISSUE:FU_type_0::FloatCvt            0      0.00%     33.55% # Type of FU issued
system.switch_cpus_1.iq.ISSUE:FU_type_0::FloatMult      3182470     19.97%     53.52% # Type of FU issued
system.switch_cpus_1.iq.ISSUE:FU_type_0::FloatDiv            0      0.00%     53.52% # Type of FU issued
system.switch_cpus_1.iq.ISSUE:FU_type_0::FloatSqrt            0      0.00%     53.52% # Type of FU issued
system.switch_cpus_1.iq.ISSUE:FU_type_0::MemRead      6698868     42.03%     95.55% # Type of FU issued
system.switch_cpus_1.iq.ISSUE:FU_type_0::MemWrite       708422      4.45%    100.00% # Type of FU issued
system.switch_cpus_1.iq.ISSUE:FU_type_0::IprAccess            0      0.00%    100.00% # Type of FU issued
system.switch_cpus_1.iq.ISSUE:FU_type_0::InstPrefetch            0      0.00%    100.00% # Type of FU issued
system.switch_cpus_1.iq.ISSUE:FU_type_0::total     15937409                       # Type of FU issued
system.switch_cpus_1.iq.ISSUE:fu_busy_cnt       148628                       # FU busy when requested
system.switch_cpus_1.iq.ISSUE:fu_busy_rate     0.009326                       # FU busy rate (busy events/executed inst)
system.switch_cpus_1.iq.ISSUE:fu_full::No_OpClass            0      0.00%      0.00% # attempts to use FU when none available
system.switch_cpus_1.iq.ISSUE:fu_full::IntAlu            9      0.01%      0.01% # attempts to use FU when none available
system.switch_cpus_1.iq.ISSUE:fu_full::IntMult            0      0.00%      0.01% # attempts to use FU when none available
system.switch_cpus_1.iq.ISSUE:fu_full::IntDiv            0      0.00%      0.01% # attempts to use FU when none available
system.switch_cpus_1.iq.ISSUE:fu_full::FloatAdd         2608      1.75%      1.76% # attempts to use FU when none available
system.switch_cpus_1.iq.ISSUE:fu_full::FloatCmp            0      0.00%      1.76% # attempts to use FU when none available
system.switch_cpus_1.iq.ISSUE:fu_full::FloatCvt            0      0.00%      1.76% # attempts to use FU when none available
system.switch_cpus_1.iq.ISSUE:fu_full::FloatMult        61373     41.29%     43.05% # attempts to use FU when none available
system.switch_cpus_1.iq.ISSUE:fu_full::FloatDiv            0      0.00%     43.05% # attempts to use FU when none available
system.switch_cpus_1.iq.ISSUE:fu_full::FloatSqrt            0      0.00%     43.05% # attempts to use FU when none available
system.switch_cpus_1.iq.ISSUE:fu_full::MemRead        82317     55.38%     98.44% # attempts to use FU when none available
system.switch_cpus_1.iq.ISSUE:fu_full::MemWrite         2321      1.56%    100.00% # attempts to use FU when none available
system.switch_cpus_1.iq.ISSUE:fu_full::IprAccess            0      0.00%    100.00% # attempts to use FU when none available
system.switch_cpus_1.iq.ISSUE:fu_full::InstPrefetch            0      0.00%    100.00% # attempts to use FU when none available
system.switch_cpus_1.iq.ISSUE:issued_per_cycle::samples     21619844                       # Number of insts issued each cycle
system.switch_cpus_1.iq.ISSUE:issued_per_cycle::mean     0.737166                       # Number of insts issued each cycle
system.switch_cpus_1.iq.ISSUE:issued_per_cycle::stdev     1.370883                       # Number of insts issued each cycle
system.switch_cpus_1.iq.ISSUE:issued_per_cycle::underflows            0      0.00%      0.00% # Number of insts issued each cycle
system.switch_cpus_1.iq.ISSUE:issued_per_cycle::0     14665506     67.83%     67.83% # Number of insts issued each cycle
system.switch_cpus_1.iq.ISSUE:issued_per_cycle::1      2683077     12.41%     80.24% # Number of insts issued each cycle
system.switch_cpus_1.iq.ISSUE:issued_per_cycle::2      1919187      8.88%     89.12% # Number of insts issued each cycle
system.switch_cpus_1.iq.ISSUE:issued_per_cycle::3      1213163      5.61%     94.73% # Number of insts issued each cycle
system.switch_cpus_1.iq.ISSUE:issued_per_cycle::4       525266      2.43%     97.16% # Number of insts issued each cycle
system.switch_cpus_1.iq.ISSUE:issued_per_cycle::5       270481      1.25%     98.41% # Number of insts issued each cycle
system.switch_cpus_1.iq.ISSUE:issued_per_cycle::6       153364      0.71%     99.12% # Number of insts issued each cycle
system.switch_cpus_1.iq.ISSUE:issued_per_cycle::7       115584      0.53%     99.66% # Number of insts issued each cycle
system.switch_cpus_1.iq.ISSUE:issued_per_cycle::8        74216      0.34%    100.00% # Number of insts issued each cycle
system.switch_cpus_1.iq.ISSUE:issued_per_cycle::overflows            0      0.00%    100.00% # Number of insts issued each cycle
system.switch_cpus_1.iq.ISSUE:issued_per_cycle::min_value            0                       # Number of insts issued each cycle
system.switch_cpus_1.iq.ISSUE:issued_per_cycle::max_value            8                       # Number of insts issued each cycle
system.switch_cpus_1.iq.ISSUE:issued_per_cycle::total     21619844                       # Number of insts issued each cycle
system.switch_cpus_1.iq.ISSUE:rate           0.650925                       # Inst issue rate
system.switch_cpus_1.iq.iqInstsAdded         19516385                       # Number of instructions added to the IQ (excludes non-spec)
system.switch_cpus_1.iq.iqInstsIssued        15937409                       # Number of instructions issued
system.switch_cpus_1.iq.iqSquashedInstsExamined      9515585                       # Number of squashed instructions iterated over during squash; mainly for profiling
system.switch_cpus_1.iq.iqSquashedInstsIssued      1795943                       # Number of squashed instructions issued
system.switch_cpus_1.iq.iqSquashedOperandsExamined      9132842                       # Number of squashed operands that are examined and possibly removed from graph
system.switch_cpus_1.itb.data_accesses              0                       # DTB accesses
system.switch_cpus_1.itb.data_acv                   0                       # DTB access violations
system.switch_cpus_1.itb.data_hits                  0                       # DTB hits
system.switch_cpus_1.itb.data_misses                0                       # DTB misses
system.switch_cpus_1.itb.fetch_accesses       3236124                       # ITB accesses
system.switch_cpus_1.itb.fetch_acv                  0                       # ITB acv
system.switch_cpus_1.itb.fetch_hits           3236107                       # ITB hits
system.switch_cpus_1.itb.fetch_misses              17                       # ITB misses
system.switch_cpus_1.itb.read_accesses              0                       # DTB read accesses
system.switch_cpus_1.itb.read_acv                   0                       # DTB read access violations
system.switch_cpus_1.itb.read_hits                  0                       # DTB read hits
system.switch_cpus_1.itb.read_misses                0                       # DTB read misses
system.switch_cpus_1.itb.write_accesses             0                       # DTB write accesses
system.switch_cpus_1.itb.write_acv                  0                       # DTB write access violations
system.switch_cpus_1.itb.write_hits                 0                       # DTB write hits
system.switch_cpus_1.itb.write_misses               0                       # DTB write misses
system.switch_cpus_1.memDep0.conflictingLoads       362810                       # Number of conflicting loads.
system.switch_cpus_1.memDep0.conflictingStores       104279                       # Number of conflicting stores.
system.switch_cpus_1.memDep0.insertedLoads      7735996                       # Number of loads inserted to the mem dependence unit.
system.switch_cpus_1.memDep0.insertedStores       971987                       # Number of stores inserted to the mem dependence unit.
system.switch_cpus_1.numCycles               24484231                       # number of cpu cycles simulated
system.switch_cpus_1.rename.RENAME:BlockCycles      8074227                       # Number of cycles rename is blocking
system.switch_cpus_1.rename.RENAME:CommittedMaps      9193394                       # Number of HB maps that are committed
system.switch_cpus_1.rename.RENAME:IQFullEvents       125025                       # Number of times rename has blocked due to IQ full
system.switch_cpus_1.rename.RENAME:IdleCycles      6985737                       # Number of cycles rename is idle
system.switch_cpus_1.rename.RENAME:LSQFullEvents      1141535                       # Number of times rename has blocked due to LSQ full
system.switch_cpus_1.rename.RENAME:ROBFullEvents        30236                       # Number of times rename has blocked due to ROB full
system.switch_cpus_1.rename.RENAME:RenameLookups     44213943                       # Number of register rename lookups that rename has made
system.switch_cpus_1.rename.RENAME:RenamedInsts     28189926                       # Number of instructions processed by rename
system.switch_cpus_1.rename.RENAME:RenamedOperands     26501347                       # Number of destination operands rename has renamed
system.switch_cpus_1.rename.RENAME:RunCycles      3771604                       # Number of cycles rename is running
system.switch_cpus_1.rename.RENAME:SquashCycles      1562467                       # Number of cycles rename is squashing
system.switch_cpus_1.rename.RENAME:UnblockCycles      1225808                       # Number of cycles rename is unblocking
system.switch_cpus_1.rename.RENAME:UndoneMaps     17307873                       # Number of HB maps that are undone due to squashing
system.switch_cpus_1.rename.RENAME:serializeStallCycles            0                       # count of cycles rename stalled for serializing inst
system.switch_cpus_1.rename.RENAME:serializingInsts            0                       # count of serializing insts renamed
system.switch_cpus_1.rename.RENAME:skidInsts      3270945                       # count of insts added to the skid buffer
system.switch_cpus_1.rename.RENAME:tempSerializingInsts            0                       # count of temporary serializing insts renamed
system.switch_cpus_1.timesIdled                 59380                       # Number of times that the entire CPU went into an idle state and unscheduled itself

---------- End Simulation Statistics   ----------
