
---------- Begin Simulation Statistics ----------
host_inst_rate                                 617040                       # Simulator instruction rate (inst/s)
host_mem_usage                                 394040                       # Number of bytes of host memory used
host_seconds                                    32.41                       # Real time elapsed on the host
host_tick_rate                              568601282                       # Simulator tick rate (ticks/s)
sim_freq                                 1000000000000                       # Frequency of simulated ticks
sim_insts                                    20000010                       # Number of instructions simulated
sim_seconds                                  0.018430                       # Number of seconds simulated
sim_ticks                                 18430070500                       # Number of ticks simulated
system.cpu.dcache.ReadReq_accesses            4257528                       # number of ReadReq accesses(hits+misses)
system.cpu.dcache.ReadReq_avg_miss_latency 43116.432579                       # average ReadReq miss latency
system.cpu.dcache.ReadReq_avg_mshr_miss_latency 40177.943508                       # average ReadReq mshr miss latency
system.cpu.dcache.ReadReq_hits                4230259                       # number of ReadReq hits
system.cpu.dcache.ReadReq_miss_latency     1175742000                       # number of ReadReq miss cycles
system.cpu.dcache.ReadReq_miss_rate          0.006405                       # miss rate for ReadReq accesses
system.cpu.dcache.ReadReq_misses                27269                       # number of ReadReq misses
system.cpu.dcache.ReadReq_mshr_hits             13391                       # number of ReadReq MSHR hits
system.cpu.dcache.ReadReq_mshr_miss_latency    557589500                       # number of ReadReq MSHR miss cycles
system.cpu.dcache.ReadReq_mshr_miss_rate     0.003260                       # mshr miss rate for ReadReq accesses
system.cpu.dcache.ReadReq_mshr_misses           13878                       # number of ReadReq MSHR misses
system.cpu.dcache.WriteReq_accesses           2851610                       # number of WriteReq accesses(hits+misses)
system.cpu.dcache.WriteReq_avg_miss_latency 80885.146658                       # average WriteReq miss latency
system.cpu.dcache.WriteReq_avg_mshr_miss_latency 89693.284436                       # average WriteReq mshr miss latency
system.cpu.dcache.WriteReq_hits               2799816                       # number of WriteReq hits
system.cpu.dcache.WriteReq_miss_latency    4189365286                       # number of WriteReq miss cycles
system.cpu.dcache.WriteReq_miss_rate         0.018163                       # miss rate for WriteReq accesses
system.cpu.dcache.WriteReq_misses               51794                       # number of WriteReq misses
system.cpu.dcache.WriteReq_mshr_hits            25528                       # number of WriteReq MSHR hits
system.cpu.dcache.WriteReq_mshr_miss_latency   2355883809                       # number of WriteReq MSHR miss cycles
system.cpu.dcache.WriteReq_mshr_miss_rate     0.009211                       # mshr miss rate for WriteReq accesses
system.cpu.dcache.WriteReq_mshr_misses          26266                       # number of WriteReq MSHR misses
system.cpu.dcache.avg_blocked_cycles::no_mshrs 22290.801755                       # average number of cycles each access was blocked
system.cpu.dcache.avg_blocked_cycles::no_targets 56620.130872                       # average number of cycles each access was blocked
system.cpu.dcache.avg_refs                 242.183264                       # Average number of references to valid blocks.
system.cpu.dcache.blocked::no_mshrs              4217                       # number of cycles access was blocked
system.cpu.dcache.blocked::no_targets            9452                       # number of cycles access was blocked
system.cpu.dcache.blocked_cycles::no_mshrs     94000311                       # number of cycles access was blocked
system.cpu.dcache.blocked_cycles::no_targets    535173477                       # number of cycles access was blocked
system.cpu.dcache.cache_copies                      0                       # number of cache copies performed
system.cpu.dcache.demand_accesses             7109138                       # number of demand (read+write) accesses
system.cpu.dcache.demand_avg_miss_latency 67858.635341                       # average overall miss latency
system.cpu.dcache.demand_avg_mshr_miss_latency 72575.560706                       # average overall mshr miss latency
system.cpu.dcache.demand_hits                 7030075                       # number of demand (read+write) hits
system.cpu.dcache.demand_miss_latency      5365107286                       # number of demand (read+write) miss cycles
system.cpu.dcache.demand_miss_rate           0.011121                       # miss rate for demand accesses
system.cpu.dcache.demand_misses                 79063                       # number of demand (read+write) misses
system.cpu.dcache.demand_mshr_hits              38919                       # number of demand (read+write) MSHR hits
system.cpu.dcache.demand_mshr_miss_latency   2913473309                       # number of demand (read+write) MSHR miss cycles
system.cpu.dcache.demand_mshr_miss_rate      0.005647                       # mshr miss rate for demand accesses
system.cpu.dcache.demand_mshr_misses            40144                       # number of demand (read+write) MSHR misses
system.cpu.dcache.fast_writes                       0                       # number of fast writes performed
system.cpu.dcache.mshr_cap_events                   0                       # number of times MSHR cap was activated
system.cpu.dcache.no_allocate_misses                0                       # Number of misses that were no-allocate
system.cpu.dcache.occ_%::0                   0.965751                       # Average percentage of cache occupancy
system.cpu.dcache.occ_blocks::0            988.929127                       # Average occupied blocks per context
system.cpu.dcache.overall_accesses            7109138                       # number of overall (read+write) accesses
system.cpu.dcache.overall_avg_miss_latency 67858.635341                       # average overall miss latency
system.cpu.dcache.overall_avg_mshr_miss_latency 72575.560706                       # average overall mshr miss latency
system.cpu.dcache.overall_avg_mshr_uncacheable_latency     no_value                       # average overall mshr uncacheable latency
system.cpu.dcache.overall_hits                7030075                       # number of overall hits
system.cpu.dcache.overall_miss_latency     5365107286                       # number of overall miss cycles
system.cpu.dcache.overall_miss_rate          0.011121                       # miss rate for overall accesses
system.cpu.dcache.overall_misses                79063                       # number of overall misses
system.cpu.dcache.overall_mshr_hits             38919                       # number of overall MSHR hits
system.cpu.dcache.overall_mshr_miss_latency   2913473309                       # number of overall MSHR miss cycles
system.cpu.dcache.overall_mshr_miss_rate     0.005647                       # mshr miss rate for overall accesses
system.cpu.dcache.overall_mshr_misses           40144                       # number of overall MSHR misses
system.cpu.dcache.overall_mshr_uncacheable_latency            0                       # number of overall MSHR uncacheable cycles
system.cpu.dcache.overall_mshr_uncacheable_misses            0                       # number of overall MSHR uncacheable misses
system.cpu.dcache.prefetch_accuracy          no_value                       # ratio of good prefetches to total prefetches
system.cpu.dcache.prefetch_hits                     0                       # number of prefetched blocks that were accessed
system.cpu.dcache.replacements                  28098                       # number of replacements
system.cpu.dcache.sampled_refs                  29122                       # Sample count of references to valid blocks.
system.cpu.dcache.soft_prefetch_mshr_full            0                       # number of mshr full events for SW prefetching instrutions
system.cpu.dcache.tagsinuse                988.929127                       # Cycle average of tags in use
system.cpu.dcache.total_refs                  7052861                       # Total number of references to valid blocks.
system.cpu.dcache.warmup_cycle           505751525000                       # Cycle when the warmup percentage was hit.
system.cpu.dcache.writebacks                    25298                       # number of writebacks
system.cpu.dtb.data_accesses                        0                       # DTB accesses
system.cpu.dtb.data_acv                             0                       # DTB access violations
system.cpu.dtb.data_hits                            0                       # DTB hits
system.cpu.dtb.data_misses                          0                       # DTB misses
system.cpu.dtb.fetch_accesses                       0                       # ITB accesses
system.cpu.dtb.fetch_acv                            0                       # ITB acv
system.cpu.dtb.fetch_hits                           0                       # ITB hits
system.cpu.dtb.fetch_misses                         0                       # ITB misses
system.cpu.dtb.read_accesses                        0                       # DTB read accesses
system.cpu.dtb.read_acv                             0                       # DTB read access violations
system.cpu.dtb.read_hits                            0                       # DTB read hits
system.cpu.dtb.read_misses                          0                       # DTB read misses
system.cpu.dtb.write_accesses                       0                       # DTB write accesses
system.cpu.dtb.write_acv                            0                       # DTB write access violations
system.cpu.dtb.write_hits                           0                       # DTB write hits
system.cpu.dtb.write_misses                         0                       # DTB write misses
system.cpu.icache.ReadReq_accesses           11272112                       # number of ReadReq accesses(hits+misses)
system.cpu.icache.ReadReq_avg_miss_latency 14172.345415                       # average ReadReq miss latency
system.cpu.icache.ReadReq_avg_mshr_miss_latency 11375.933028                       # average ReadReq mshr miss latency
system.cpu.icache.ReadReq_hits               11196215                       # number of ReadReq hits
system.cpu.icache.ReadReq_miss_latency     1075638500                       # number of ReadReq miss cycles
system.cpu.icache.ReadReq_miss_rate          0.006733                       # miss rate for ReadReq accesses
system.cpu.icache.ReadReq_misses                75897                       # number of ReadReq misses
system.cpu.icache.ReadReq_mshr_hits              3148                       # number of ReadReq MSHR hits
system.cpu.icache.ReadReq_mshr_miss_latency    827565000                       # number of ReadReq MSHR miss cycles
system.cpu.icache.ReadReq_mshr_miss_rate     0.006454                       # mshr miss rate for ReadReq accesses
system.cpu.icache.ReadReq_mshr_misses           72747                       # number of ReadReq MSHR misses
system.cpu.icache.avg_blocked_cycles::no_mshrs     no_value                       # average number of cycles each access was blocked
system.cpu.icache.avg_blocked_cycles::no_targets 58833.333333                       # average number of cycles each access was blocked
system.cpu.icache.avg_refs                 153.901978                       # Average number of references to valid blocks.
system.cpu.icache.blocked::no_mshrs                 0                       # number of cycles access was blocked
system.cpu.icache.blocked::no_targets               3                       # number of cycles access was blocked
system.cpu.icache.blocked_cycles::no_mshrs            0                       # number of cycles access was blocked
system.cpu.icache.blocked_cycles::no_targets       176500                       # number of cycles access was blocked
system.cpu.icache.cache_copies                      0                       # number of cache copies performed
system.cpu.icache.demand_accesses            11272112                       # number of demand (read+write) accesses
system.cpu.icache.demand_avg_miss_latency 14172.345415                       # average overall miss latency
system.cpu.icache.demand_avg_mshr_miss_latency 11375.933028                       # average overall mshr miss latency
system.cpu.icache.demand_hits                11196215                       # number of demand (read+write) hits
system.cpu.icache.demand_miss_latency      1075638500                       # number of demand (read+write) miss cycles
system.cpu.icache.demand_miss_rate           0.006733                       # miss rate for demand accesses
system.cpu.icache.demand_misses                 75897                       # number of demand (read+write) misses
system.cpu.icache.demand_mshr_hits               3148                       # number of demand (read+write) MSHR hits
system.cpu.icache.demand_mshr_miss_latency    827565000                       # number of demand (read+write) MSHR miss cycles
system.cpu.icache.demand_mshr_miss_rate      0.006454                       # mshr miss rate for demand accesses
system.cpu.icache.demand_mshr_misses            72747                       # number of demand (read+write) MSHR misses
system.cpu.icache.fast_writes                       0                       # number of fast writes performed
system.cpu.icache.mshr_cap_events                   0                       # number of times MSHR cap was activated
system.cpu.icache.no_allocate_misses                0                       # Number of misses that were no-allocate
system.cpu.icache.occ_%::0                   0.809740                       # Average percentage of cache occupancy
system.cpu.icache.occ_blocks::0            414.586840                       # Average occupied blocks per context
system.cpu.icache.overall_accesses           11272112                       # number of overall (read+write) accesses
system.cpu.icache.overall_avg_miss_latency 14172.345415                       # average overall miss latency
system.cpu.icache.overall_avg_mshr_miss_latency 11375.933028                       # average overall mshr miss latency
system.cpu.icache.overall_avg_mshr_uncacheable_latency     no_value                       # average overall mshr uncacheable latency
system.cpu.icache.overall_hits               11196215                       # number of overall hits
system.cpu.icache.overall_miss_latency     1075638500                       # number of overall miss cycles
system.cpu.icache.overall_miss_rate          0.006733                       # miss rate for overall accesses
system.cpu.icache.overall_misses                75897                       # number of overall misses
system.cpu.icache.overall_mshr_hits              3148                       # number of overall MSHR hits
system.cpu.icache.overall_mshr_miss_latency    827565000                       # number of overall MSHR miss cycles
system.cpu.icache.overall_mshr_miss_rate     0.006454                       # mshr miss rate for overall accesses
system.cpu.icache.overall_mshr_misses           72747                       # number of overall MSHR misses
system.cpu.icache.overall_mshr_uncacheable_latency            0                       # number of overall MSHR uncacheable cycles
system.cpu.icache.overall_mshr_uncacheable_misses            0                       # number of overall MSHR uncacheable misses
system.cpu.icache.prefetch_accuracy          no_value                       # ratio of good prefetches to total prefetches
system.cpu.icache.prefetch_hits                     0                       # number of prefetched blocks that were accessed
system.cpu.icache.replacements                  72308                       # number of replacements
system.cpu.icache.sampled_refs                  72749                       # Sample count of references to valid blocks.
system.cpu.icache.soft_prefetch_mshr_full            0                       # number of mshr full events for SW prefetching instrutions
system.cpu.icache.tagsinuse                414.586840                       # Cycle average of tags in use
system.cpu.icache.total_refs                 11196215                       # Total number of references to valid blocks.
system.cpu.icache.warmup_cycle                      0                       # Cycle when the warmup percentage was hit.
system.cpu.icache.writebacks                        0                       # number of writebacks
system.cpu.idle_fraction                            0                       # Percentage of idle cycles
system.cpu.itb.data_accesses                        0                       # DTB accesses
system.cpu.itb.data_acv                             0                       # DTB access violations
system.cpu.itb.data_hits                            0                       # DTB hits
system.cpu.itb.data_misses                          0                       # DTB misses
system.cpu.itb.fetch_accesses                       2                       # ITB accesses
system.cpu.itb.fetch_acv                            0                       # ITB acv
system.cpu.itb.fetch_hits                           2                       # ITB hits
system.cpu.itb.fetch_misses                         0                       # ITB misses
system.cpu.itb.read_accesses                        0                       # DTB read accesses
system.cpu.itb.read_acv                             0                       # DTB read access violations
system.cpu.itb.read_hits                            0                       # DTB read hits
system.cpu.itb.read_misses                          0                       # DTB read misses
system.cpu.itb.write_accesses                       0                       # DTB write accesses
system.cpu.itb.write_acv                            0                       # DTB write access violations
system.cpu.itb.write_hits                           0                       # DTB write hits
system.cpu.itb.write_misses                         0                       # DTB write misses
system.cpu.not_idle_fraction                        1                       # Percentage of non-idle cycles
system.cpu.numCycles                                2                       # number of cpu cycles simulated
system.cpu.num_insts                                2                       # Number of instructions executed
system.cpu.num_refs                                 0                       # Number of memory references
system.cpu.workload.PROG:num_syscalls               0                       # Number of system calls
system.l2.HardPFReq_avg_mshr_miss_latency 48100.641809                       # average HardPFReq mshr miss latency
system.l2.HardPFReq_mshr_miss_latency       448923290                       # number of HardPFReq MSHR miss cycles
system.l2.HardPFReq_mshr_miss_rate                inf                       # mshr miss rate for HardPFReq accesses
system.l2.HardPFReq_mshr_misses                  9333                       # number of HardPFReq MSHR misses
system.l2.ReadExReq_accesses                    15244                       # number of ReadExReq accesses(hits+misses)
system.l2.ReadExReq_avg_miss_latency     112946.363216                       # average ReadExReq miss latency
system.l2.ReadExReq_avg_mshr_miss_latency 97613.143382                       # average ReadExReq mshr miss latency
system.l2.ReadExReq_hits                          542                       # number of ReadExReq hits
system.l2.ReadExReq_miss_latency           1660537432                       # number of ReadExReq miss cycles
system.l2.ReadExReq_miss_rate                0.964445                       # miss rate for ReadExReq accesses
system.l2.ReadExReq_misses                      14702                       # number of ReadExReq misses
system.l2.ReadExReq_mshr_miss_latency      1435108434                       # number of ReadExReq MSHR miss cycles
system.l2.ReadExReq_mshr_miss_rate           0.964445                       # mshr miss rate for ReadExReq accesses
system.l2.ReadExReq_mshr_misses                 14702                       # number of ReadExReq MSHR misses
system.l2.ReadReq_accesses                      86627                       # number of ReadReq accesses(hits+misses)
system.l2.ReadReq_avg_miss_latency       70122.325087                       # average ReadReq miss latency
system.l2.ReadReq_avg_mshr_miss_latency  54507.364106                       # average ReadReq mshr miss latency
system.l2.ReadReq_hits                          80038                       # number of ReadReq hits
system.l2.ReadReq_miss_latency              462036000                       # number of ReadReq miss cycles
system.l2.ReadReq_miss_rate                  0.076062                       # miss rate for ReadReq accesses
system.l2.ReadReq_misses                         6589                       # number of ReadReq misses
system.l2.ReadReq_mshr_hits                         1                       # number of ReadReq MSHR hits
system.l2.ReadReq_mshr_miss_latency         358985500                       # number of ReadReq MSHR miss cycles
system.l2.ReadReq_mshr_miss_rate             0.076027                       # mshr miss rate for ReadReq accesses
system.l2.ReadReq_mshr_misses                    6586                       # number of ReadReq MSHR misses
system.l2.UpgradeReq_accesses                   11022                       # number of UpgradeReq accesses(hits+misses)
system.l2.UpgradeReq_avg_miss_latency    56742.205680                       # average UpgradeReq miss latency
system.l2.UpgradeReq_avg_mshr_miss_latency 40803.538922                       # average UpgradeReq mshr miss latency
system.l2.UpgradeReq_miss_latency           625412591                       # number of UpgradeReq miss cycles
system.l2.UpgradeReq_miss_rate                      1                       # miss rate for UpgradeReq accesses
system.l2.UpgradeReq_misses                     11022                       # number of UpgradeReq misses
system.l2.UpgradeReq_mshr_miss_latency      449736606                       # number of UpgradeReq MSHR miss cycles
system.l2.UpgradeReq_mshr_miss_rate                 1                       # mshr miss rate for UpgradeReq accesses
system.l2.UpgradeReq_mshr_misses                11022                       # number of UpgradeReq MSHR misses
system.l2.Writeback_accesses                    25298                       # number of Writeback accesses(hits+misses)
system.l2.Writeback_hits                        25298                       # number of Writeback hits
system.l2.avg_blocked_cycles::no_mshrs       no_value                       # average number of cycles each access was blocked
system.l2.avg_blocked_cycles::no_targets     no_value                       # average number of cycles each access was blocked
system.l2.avg_refs                           5.387749                       # Average number of references to valid blocks.
system.l2.blocked::no_mshrs                         0                       # number of cycles access was blocked
system.l2.blocked::no_targets                       0                       # number of cycles access was blocked
system.l2.blocked_cycles::no_mshrs                  0                       # number of cycles access was blocked
system.l2.blocked_cycles::no_targets                0                       # number of cycles access was blocked
system.l2.cache_copies                              0                       # number of cache copies performed
system.l2.demand_accesses                      101871                       # number of demand (read+write) accesses
system.l2.demand_avg_miss_latency        99693.458832                       # average overall miss latency
system.l2.demand_avg_mshr_miss_latency   84277.242296                       # average overall mshr miss latency
system.l2.demand_hits                           80580                       # number of demand (read+write) hits
system.l2.demand_miss_latency              2122573432                       # number of demand (read+write) miss cycles
system.l2.demand_miss_rate                   0.209000                       # miss rate for demand accesses
system.l2.demand_misses                         21291                       # number of demand (read+write) misses
system.l2.demand_mshr_hits                          1                       # number of demand (read+write) MSHR hits
system.l2.demand_mshr_miss_latency         1794093934                       # number of demand (read+write) MSHR miss cycles
system.l2.demand_mshr_miss_rate              0.208970                       # mshr miss rate for demand accesses
system.l2.demand_mshr_misses                    21288                       # number of demand (read+write) MSHR misses
system.l2.fast_writes                               0                       # number of fast writes performed
system.l2.mshr_cap_events                           0                       # number of times MSHR cap was activated
system.l2.no_allocate_misses                        0                       # Number of misses that were no-allocate
system.l2.occ_%::0                           0.189857                       # Average percentage of cache occupancy
system.l2.occ_%::1                           0.115347                       # Average percentage of cache occupancy
system.l2.occ_blocks::0                   3110.618247                       # Average occupied blocks per context
system.l2.occ_blocks::1                   1889.843598                       # Average occupied blocks per context
system.l2.overall_accesses                     101871                       # number of overall (read+write) accesses
system.l2.overall_avg_miss_latency       99693.458832                       # average overall miss latency
system.l2.overall_avg_mshr_miss_latency  73250.946213                       # average overall mshr miss latency
system.l2.overall_avg_mshr_uncacheable_latency     no_value                       # average overall mshr uncacheable latency
system.l2.overall_hits                          80580                       # number of overall hits
system.l2.overall_miss_latency             2122573432                       # number of overall miss cycles
system.l2.overall_miss_rate                  0.209000                       # miss rate for overall accesses
system.l2.overall_misses                        21291                       # number of overall misses
system.l2.overall_mshr_hits                         1                       # number of overall MSHR hits
system.l2.overall_mshr_miss_latency        2243017224                       # number of overall MSHR miss cycles
system.l2.overall_mshr_miss_rate             0.300586                       # mshr miss rate for overall accesses
system.l2.overall_mshr_misses                   30621                       # number of overall MSHR misses
system.l2.overall_mshr_uncacheable_latency            0                       # number of overall MSHR uncacheable cycles
system.l2.overall_mshr_uncacheable_misses            0                       # number of overall MSHR uncacheable misses
system.l2.prefetch_accuracy                  0.932926                       # ratio of good prefetches to total prefetches
system.l2.prefetch_hits                          8707                       # number of prefetched blocks that were accessed
system.l2.prefetcher.num_hwpf_already_in_prefetcher          139                       # number of hwpf that were already in the prefetch queue
system.l2.prefetcher.num_hwpf_evicted               0                       # number of hwpf removed due to no buffer left
system.l2.prefetcher.num_hwpf_identified         9497                       # number of hwpf identified
system.l2.prefetcher.num_hwpf_issued             9333                       # number of hwpf issued
system.l2.prefetcher.num_hwpf_removed_MSHR_hit           25                       # number of hwpf removed because MSHR allocated
system.l2.prefetcher.num_hwpf_span_page             0                       # number of hwpf spanning a virtual page
system.l2.prefetcher.num_hwpf_squashed_from_miss            0                       # number of hwpf that got squashed due to a miss aborting calculation time
system.l2.replacements                           9218                       # number of replacements
system.l2.sampled_refs                          17060                       # Sample count of references to valid blocks.
system.l2.soft_prefetch_mshr_full                   0                       # number of mshr full events for SW prefetching instrutions
system.l2.tagsinuse                       5000.461844                       # Cycle average of tags in use
system.l2.total_refs                            91915                       # Total number of references to valid blocks.
system.l2.warmup_cycle                              0                       # Cycle when the warmup percentage was hit.
system.l2.writebacks                             8738                       # number of writebacks
system.switch_cpus.dtb.data_accesses          3533281                       # DTB accesses
system.switch_cpus.dtb.data_acv                     0                       # DTB access violations
system.switch_cpus.dtb.data_hits              3533187                       # DTB hits
system.switch_cpus.dtb.data_misses                 94                       # DTB misses
system.switch_cpus.dtb.fetch_accesses               0                       # ITB accesses
system.switch_cpus.dtb.fetch_acv                    0                       # ITB acv
system.switch_cpus.dtb.fetch_hits                   0                       # ITB hits
system.switch_cpus.dtb.fetch_misses                 0                       # ITB misses
system.switch_cpus.dtb.read_accesses          2118869                       # DTB read accesses
system.switch_cpus.dtb.read_acv                     0                       # DTB read access violations
system.switch_cpus.dtb.read_hits              2118830                       # DTB read hits
system.switch_cpus.dtb.read_misses                 39                       # DTB read misses
system.switch_cpus.dtb.write_accesses         1414412                       # DTB write accesses
system.switch_cpus.dtb.write_acv                    0                       # DTB write access violations
system.switch_cpus.dtb.write_hits             1414357                       # DTB write hits
system.switch_cpus.dtb.write_misses                55                       # DTB write misses
system.switch_cpus.idle_fraction                    1                       # Percentage of idle cycles
system.switch_cpus.itb.data_accesses                0                       # DTB accesses
system.switch_cpus.itb.data_acv                     0                       # DTB access violations
system.switch_cpus.itb.data_hits                    0                       # DTB hits
system.switch_cpus.itb.data_misses                  0                       # DTB misses
system.switch_cpus.itb.fetch_accesses        10000112                       # ITB accesses
system.switch_cpus.itb.fetch_acv                    0                       # ITB acv
system.switch_cpus.itb.fetch_hits            10000095                       # ITB hits
system.switch_cpus.itb.fetch_misses                17                       # ITB misses
system.switch_cpus.itb.read_accesses                0                       # DTB read accesses
system.switch_cpus.itb.read_acv                     0                       # DTB read access violations
system.switch_cpus.itb.read_hits                    0                       # DTB read hits
system.switch_cpus.itb.read_misses                  0                       # DTB read misses
system.switch_cpus.itb.write_accesses               0                       # DTB write accesses
system.switch_cpus.itb.write_acv                    0                       # DTB write access violations
system.switch_cpus.itb.write_hits                   0                       # DTB write hits
system.switch_cpus.itb.write_misses                 0                       # DTB write misses
system.switch_cpus.not_idle_fraction                0                       # Percentage of non-idle cycles
system.switch_cpus.numCycles                 30140061                       # number of cpu cycles simulated
system.switch_cpus.num_insts                 10000001                       # Number of instructions executed
system.switch_cpus.num_refs                   3723635                       # Number of memory references
system.switch_cpus_1.BPredUnit.BTBCorrect            0                       # Number of correct BTB predictions (this stat may not work properly.
system.switch_cpus_1.BPredUnit.BTBHits         265206                       # Number of BTB hits
system.switch_cpus_1.BPredUnit.BTBLookups       430493                       # Number of BTB lookups
system.switch_cpus_1.BPredUnit.RASInCorrect            7                       # Number of incorrect RAS predictions.
system.switch_cpus_1.BPredUnit.condIncorrect        40254                       # Number of conditional branches incorrect
system.switch_cpus_1.BPredUnit.condPredicted       493671                       # Number of conditional branches predicted
system.switch_cpus_1.BPredUnit.lookups         510957                       # Number of BP lookups
system.switch_cpus_1.BPredUnit.usedRAS           5826                       # Number of times the RAS was used to get a target.
system.switch_cpus_1.commit.COM:branches       363562                       # Number of branches committed
system.switch_cpus_1.commit.COM:bw_lim_events       372476                       # number cycles where commit BW limit reached
system.switch_cpus_1.commit.COM:bw_limited            0                       # number of insts not committed due to BW limits
system.switch_cpus_1.commit.COM:committed_per_cycle::samples      6295569                       # Number of insts commited each cycle
system.switch_cpus_1.commit.COM:committed_per_cycle::mean     1.614712                       # Number of insts commited each cycle
system.switch_cpus_1.commit.COM:committed_per_cycle::stdev     2.380527                       # Number of insts commited each cycle
system.switch_cpus_1.commit.COM:committed_per_cycle::underflows            0      0.00%      0.00% # Number of insts commited each cycle
system.switch_cpus_1.commit.COM:committed_per_cycle::0      3346433     53.16%     53.16% # Number of insts commited each cycle
system.switch_cpus_1.commit.COM:committed_per_cycle::1       903634     14.35%     67.51% # Number of insts commited each cycle
system.switch_cpus_1.commit.COM:committed_per_cycle::2       415788      6.60%     74.11% # Number of insts commited each cycle
system.switch_cpus_1.commit.COM:committed_per_cycle::3       402591      6.39%     80.51% # Number of insts commited each cycle
system.switch_cpus_1.commit.COM:committed_per_cycle::4       403031      6.40%     86.91% # Number of insts commited each cycle
system.switch_cpus_1.commit.COM:committed_per_cycle::5       191796      3.05%     89.96% # Number of insts commited each cycle
system.switch_cpus_1.commit.COM:committed_per_cycle::6       147103      2.34%     92.29% # Number of insts commited each cycle
system.switch_cpus_1.commit.COM:committed_per_cycle::7       112717      1.79%     94.08% # Number of insts commited each cycle
system.switch_cpus_1.commit.COM:committed_per_cycle::8       372476      5.92%    100.00% # Number of insts commited each cycle
system.switch_cpus_1.commit.COM:committed_per_cycle::overflows            0      0.00%    100.00% # Number of insts commited each cycle
system.switch_cpus_1.commit.COM:committed_per_cycle::min_value            0                       # Number of insts commited each cycle
system.switch_cpus_1.commit.COM:committed_per_cycle::max_value            8                       # Number of insts commited each cycle
system.switch_cpus_1.commit.COM:committed_per_cycle::total      6295569                       # Number of insts commited each cycle
system.switch_cpus_1.commit.COM:count        10165532                       # Number of instructions committed
system.switch_cpus_1.commit.COM:loads         2313029                       # Number of loads committed
system.switch_cpus_1.commit.COM:membars             0                       # Number of memory barriers committed
system.switch_cpus_1.commit.COM:refs          3782914                       # Number of memory references committed
system.switch_cpus_1.commit.COM:swp_count            0                       # Number of s/w prefetches committed
system.switch_cpus_1.commit.branchMispredicts        40225                       # The number of times a branch was mispredicted
system.switch_cpus_1.commit.commitCommittedInsts     10165532                       # The number of committed instructions
system.switch_cpus_1.commit.commitSquashedInsts      1327085                       # The number of squashed insts skipped by commit
system.switch_cpus_1.committedInsts          10000007                       # Number of Instructions Simulated
system.switch_cpus_1.committedInsts_total     10000007                       # Number of Instructions Simulated
system.switch_cpus_1.cpi                     0.672007                       # CPI: Cycles Per Instruction
system.switch_cpus_1.cpi_total               0.672007                       # CPI: Total CPI of All Threads
system.switch_cpus_1.decode.DECODE:BlockedCycles       980814                       # Number of cycles decode is blocked
system.switch_cpus_1.decode.DECODE:BranchMispred           31                       # Number of times decode detected a branch misprediction
system.switch_cpus_1.decode.DECODE:BranchResolved        11409                       # Number of times decode resolved a branch
system.switch_cpus_1.decode.DECODE:DecodedInsts     13435201                       # Number of instructions handled by decode
system.switch_cpus_1.decode.DECODE:IdleCycles      3379539                       # Number of cycles decode is idle
system.switch_cpus_1.decode.DECODE:RunCycles      1923174                       # Number of cycles decode is running
system.switch_cpus_1.decode.DECODE:SquashCycles       252488                       # Number of cycles decode is squashing
system.switch_cpus_1.decode.DECODE:SquashedInsts           83                       # Number of squashed instructions handled by decode
system.switch_cpus_1.decode.DECODE:UnblockCycles        12041                       # Number of cycles decode is unblocking
system.switch_cpus_1.dtb.data_accesses        4080781                       # DTB accesses
system.switch_cpus_1.dtb.data_acv                   0                       # DTB access violations
system.switch_cpus_1.dtb.data_hits            4079113                       # DTB hits
system.switch_cpus_1.dtb.data_misses             1668                       # DTB misses
system.switch_cpus_1.dtb.fetch_accesses             0                       # ITB accesses
system.switch_cpus_1.dtb.fetch_acv                  0                       # ITB acv
system.switch_cpus_1.dtb.fetch_hits                 0                       # ITB hits
system.switch_cpus_1.dtb.fetch_misses               0                       # ITB misses
system.switch_cpus_1.dtb.read_accesses        2491211                       # DTB read accesses
system.switch_cpus_1.dtb.read_acv                   0                       # DTB read access violations
system.switch_cpus_1.dtb.read_hits            2490927                       # DTB read hits
system.switch_cpus_1.dtb.read_misses              284                       # DTB read misses
system.switch_cpus_1.dtb.write_accesses       1589570                       # DTB write accesses
system.switch_cpus_1.dtb.write_acv                  0                       # DTB write access violations
system.switch_cpus_1.dtb.write_hits           1588186                       # DTB write hits
system.switch_cpus_1.dtb.write_misses            1384                       # DTB write misses
system.switch_cpus_1.fetch.Branches            510957                       # Number of branches that fetch encountered
system.switch_cpus_1.fetch.CacheLines         1272015                       # Number of cache lines fetched
system.switch_cpus_1.fetch.Cycles             3232606                       # Number of cycles fetch has run and was not squashing or blocked
system.switch_cpus_1.fetch.IcacheSquashes        60937                       # Number of outstanding Icache misses that were squashed
system.switch_cpus_1.fetch.Insts             13608812                       # Number of instructions fetch has processed
system.switch_cpus_1.fetch.SquashCycles        165626                       # Number of cycles fetch has spent squashing
system.switch_cpus_1.fetch.branchRate        0.076034                       # Number of branch fetches per cycle
system.switch_cpus_1.fetch.icacheStallCycles      1272015                       # Number of cycles fetch is stalled on an Icache miss
system.switch_cpus_1.fetch.predictedBranches       271032                       # Number of branches that fetch has predicted taken
system.switch_cpus_1.fetch.rate              2.025097                       # Number of inst fetches per cycle
system.switch_cpus_1.fetch.rateDist::samples      6548057                       # Number of instructions fetched each cycle (Total)
system.switch_cpus_1.fetch.rateDist::mean     2.078298                       # Number of instructions fetched each cycle (Total)
system.switch_cpus_1.fetch.rateDist::stdev     3.357774                       # Number of instructions fetched each cycle (Total)
system.switch_cpus_1.fetch.rateDist::underflows            0      0.00%      0.00% # Number of instructions fetched each cycle (Total)
system.switch_cpus_1.fetch.rateDist::0        4587485     70.06%     70.06% # Number of instructions fetched each cycle (Total)
system.switch_cpus_1.fetch.rateDist::1          38312      0.59%     70.64% # Number of instructions fetched each cycle (Total)
system.switch_cpus_1.fetch.rateDist::2          75953      1.16%     71.80% # Number of instructions fetched each cycle (Total)
system.switch_cpus_1.fetch.rateDist::3          66212      1.01%     72.81% # Number of instructions fetched each cycle (Total)
system.switch_cpus_1.fetch.rateDist::4         173958      2.66%     75.47% # Number of instructions fetched each cycle (Total)
system.switch_cpus_1.fetch.rateDist::5          61754      0.94%     76.41% # Number of instructions fetched each cycle (Total)
system.switch_cpus_1.fetch.rateDist::6          50038      0.76%     77.18% # Number of instructions fetched each cycle (Total)
system.switch_cpus_1.fetch.rateDist::7          39632      0.61%     77.78% # Number of instructions fetched each cycle (Total)
system.switch_cpus_1.fetch.rateDist::8        1454713     22.22%    100.00% # Number of instructions fetched each cycle (Total)
system.switch_cpus_1.fetch.rateDist::overflows            0      0.00%    100.00% # Number of instructions fetched each cycle (Total)
system.switch_cpus_1.fetch.rateDist::min_value            0                       # Number of instructions fetched each cycle (Total)
system.switch_cpus_1.fetch.rateDist::max_value            8                       # Number of instructions fetched each cycle (Total)
system.switch_cpus_1.fetch.rateDist::total      6548057                       # Number of instructions fetched each cycle (Total)
system.switch_cpus_1.idleCycles                172022                       # Total number of cycles that the CPU has spent unscheduled due to idling
system.switch_cpus_1.iew.EXEC:branches         379840                       # Number of branches executed
system.switch_cpus_1.iew.EXEC:nop              178877                       # number of nop insts executed
system.switch_cpus_1.iew.EXEC:rate           1.622516                       # Inst execution rate
system.switch_cpus_1.iew.EXEC:refs            4303240                       # number of memory reference insts executed
system.switch_cpus_1.iew.EXEC:stores          1640011                       # Number of stores executed
system.switch_cpus_1.iew.EXEC:swp                   0                       # number of swp insts executed
system.switch_cpus_1.iew.WB:consumers         7574665                       # num instructions consuming a value
system.switch_cpus_1.iew.WB:count            10568743                       # cumulative count of insts written-back
system.switch_cpus_1.iew.WB:fanout           0.753264                       # average fanout of values written-back
system.switch_cpus_1.iew.WB:penalized               0                       # number of instrctions required to write to 'other' IQ
system.switch_cpus_1.iew.WB:penalized_rate            0                       # fraction of instructions written-back that wrote to 'other' IQ
system.switch_cpus_1.iew.WB:producers         5705719                       # num instructions producing a value
system.switch_cpus_1.iew.WB:rate             1.572711                       # insts written-back per cycle
system.switch_cpus_1.iew.WB:sent             10574071                       # cumulative count of insts sent to commit
system.switch_cpus_1.iew.branchMispredicts        42238                       # Number of branch mispredicts detected at execute
system.switch_cpus_1.iew.iewBlockCycles         63689                       # Number of cycles IEW is blocking
system.switch_cpus_1.iew.iewDispLoadInsts      2738365                       # Number of dispatched load instructions
system.switch_cpus_1.iew.iewDispNonSpecInsts            0                       # Number of dispatched non-speculative instructions
system.switch_cpus_1.iew.iewDispSquashedInsts       448944                       # Number of squashed instructions skipped by dispatch
system.switch_cpus_1.iew.iewDispStoreInsts      1830879                       # Number of dispatched store instructions
system.switch_cpus_1.iew.iewDispatchedInsts     11494814                       # Number of instructions dispatched to IQ
system.switch_cpus_1.iew.iewExecLoadInsts      2663229                       # Number of load instructions executed
system.switch_cpus_1.iew.iewExecSquashedInsts       126923                       # Number of squashed instructions skipped in execute
system.switch_cpus_1.iew.iewExecutedInsts     10903435                       # Number of executed instructions
system.switch_cpus_1.iew.iewIQFullEvents         1565                       # Number of times the IQ has become full, causing a stall
system.switch_cpus_1.iew.iewIdleCycles              0                       # Number of cycles IEW is idle
system.switch_cpus_1.iew.iewLSQFullEvents          204                       # Number of times the LSQ has become full, causing a stall
system.switch_cpus_1.iew.iewSquashCycles       252488                       # Number of cycles IEW is squashing
system.switch_cpus_1.iew.iewUnblockCycles         4622                       # Number of cycles IEW is unblocking
system.switch_cpus_1.iew.lsq.thread.0.blockedLoads            0                       # Number of blocked loads due to partial load-store forwarding
system.switch_cpus_1.iew.lsq.thread.0.cacheBlocked       322510                       # Number of times an access to memory failed due to the cache being blocked
system.switch_cpus_1.iew.lsq.thread.0.forwLoads        36778                       # Number of loads that had data forwarded from stores
system.switch_cpus_1.iew.lsq.thread.0.ignoredResponses            7                       # Number of memory responses ignored because the instruction is squashed
system.switch_cpus_1.iew.lsq.thread.0.invAddrLoads            0                       # Number of loads ignored due to an invalid address
system.switch_cpus_1.iew.lsq.thread.0.invAddrSwpfs            0                       # Number of software prefetches ignored due to an invalid address
system.switch_cpus_1.iew.lsq.thread.0.memOrderViolation         3176                       # Number of memory ordering violations
system.switch_cpus_1.iew.lsq.thread.0.rescheduledLoads            0                       # Number of loads that were rescheduled
system.switch_cpus_1.iew.lsq.thread.0.squashedLoads       425312                       # Number of loads squashed
system.switch_cpus_1.iew.lsq.thread.0.squashedStores       360983                       # Number of stores squashed
system.switch_cpus_1.iew.memOrderViolationEvents         3176                       # Number of memory order violations
system.switch_cpus_1.iew.predictedNotTakenIncorrect         3468                       # Number of branches that were predicted not taken incorrectly
system.switch_cpus_1.iew.predictedTakenIncorrect        38770                       # Number of branches that were predicted taken incorrectly
system.switch_cpus_1.ipc                     1.488079                       # IPC: Instructions Per Cycle
system.switch_cpus_1.ipc_total               1.488079                       # IPC: Total IPC of All Threads
system.switch_cpus_1.iq.ISSUE:FU_type_0::No_OpClass            0      0.00%      0.00% # Type of FU issued
system.switch_cpus_1.iq.ISSUE:FU_type_0::IntAlu      4085255     37.04%     37.04% # Type of FU issued
system.switch_cpus_1.iq.ISSUE:FU_type_0::IntMult       388711      3.52%     40.56% # Type of FU issued
system.switch_cpus_1.iq.ISSUE:FU_type_0::IntDiv            0      0.00%     40.56% # Type of FU issued
system.switch_cpus_1.iq.ISSUE:FU_type_0::FloatAdd      1331334     12.07%     52.63% # Type of FU issued
system.switch_cpus_1.iq.ISSUE:FU_type_0::FloatCmp            0      0.00%     52.63% # Type of FU issued
system.switch_cpus_1.iq.ISSUE:FU_type_0::FloatCvt        18091      0.16%     52.79% # Type of FU issued
system.switch_cpus_1.iq.ISSUE:FU_type_0::FloatMult       851274      7.72%     60.51% # Type of FU issued
system.switch_cpus_1.iq.ISSUE:FU_type_0::FloatDiv         6162      0.06%     60.57% # Type of FU issued
system.switch_cpus_1.iq.ISSUE:FU_type_0::FloatSqrt            0      0.00%     60.57% # Type of FU issued
system.switch_cpus_1.iq.ISSUE:FU_type_0::MemRead      2692057     24.41%     84.97% # Type of FU issued
system.switch_cpus_1.iq.ISSUE:FU_type_0::MemWrite      1657475     15.03%    100.00% # Type of FU issued
system.switch_cpus_1.iq.ISSUE:FU_type_0::IprAccess            0      0.00%    100.00% # Type of FU issued
system.switch_cpus_1.iq.ISSUE:FU_type_0::InstPrefetch            0      0.00%    100.00% # Type of FU issued
system.switch_cpus_1.iq.ISSUE:FU_type_0::total     11030359                       # Type of FU issued
system.switch_cpus_1.iq.ISSUE:fu_busy_cnt       390478                       # FU busy when requested
system.switch_cpus_1.iq.ISSUE:fu_busy_rate     0.035400                       # FU busy rate (busy events/executed inst)
system.switch_cpus_1.iq.ISSUE:fu_full::No_OpClass            0      0.00%      0.00% # attempts to use FU when none available
system.switch_cpus_1.iq.ISSUE:fu_full::IntAlu        51551     13.20%     13.20% # attempts to use FU when none available
system.switch_cpus_1.iq.ISSUE:fu_full::IntMult        52742     13.51%     26.71% # attempts to use FU when none available
system.switch_cpus_1.iq.ISSUE:fu_full::IntDiv            0      0.00%     26.71% # attempts to use FU when none available
system.switch_cpus_1.iq.ISSUE:fu_full::FloatAdd        16473      4.22%     30.93% # attempts to use FU when none available
system.switch_cpus_1.iq.ISSUE:fu_full::FloatCmp            0      0.00%     30.93% # attempts to use FU when none available
system.switch_cpus_1.iq.ISSUE:fu_full::FloatCvt            0      0.00%     30.93% # attempts to use FU when none available
system.switch_cpus_1.iq.ISSUE:fu_full::FloatMult        96877     24.81%     55.74% # attempts to use FU when none available
system.switch_cpus_1.iq.ISSUE:fu_full::FloatDiv            0      0.00%     55.74% # attempts to use FU when none available
system.switch_cpus_1.iq.ISSUE:fu_full::FloatSqrt            0      0.00%     55.74% # attempts to use FU when none available
system.switch_cpus_1.iq.ISSUE:fu_full::MemRead       120996     30.99%     86.72% # attempts to use FU when none available
system.switch_cpus_1.iq.ISSUE:fu_full::MemWrite        51839     13.28%    100.00% # attempts to use FU when none available
system.switch_cpus_1.iq.ISSUE:fu_full::IprAccess            0      0.00%    100.00% # attempts to use FU when none available
system.switch_cpus_1.iq.ISSUE:fu_full::InstPrefetch            0      0.00%    100.00% # attempts to use FU when none available
system.switch_cpus_1.iq.ISSUE:issued_per_cycle::samples      6548057                       # Number of insts issued each cycle
system.switch_cpus_1.iq.ISSUE:issued_per_cycle::mean     1.684524                       # Number of insts issued each cycle
system.switch_cpus_1.iq.ISSUE:issued_per_cycle::stdev     2.012055                       # Number of insts issued each cycle
system.switch_cpus_1.iq.ISSUE:issued_per_cycle::underflows            0      0.00%      0.00% # Number of insts issued each cycle
system.switch_cpus_1.iq.ISSUE:issued_per_cycle::0      2895940     44.23%     44.23% # Number of insts issued each cycle
system.switch_cpus_1.iq.ISSUE:issued_per_cycle::1      1001845     15.30%     59.53% # Number of insts issued each cycle
system.switch_cpus_1.iq.ISSUE:issued_per_cycle::2       668906     10.22%     69.74% # Number of insts issued each cycle
system.switch_cpus_1.iq.ISSUE:issued_per_cycle::3       588266      8.98%     78.72% # Number of insts issued each cycle
system.switch_cpus_1.iq.ISSUE:issued_per_cycle::4       631796      9.65%     88.37% # Number of insts issued each cycle
system.switch_cpus_1.iq.ISSUE:issued_per_cycle::5       358194      5.47%     93.84% # Number of insts issued each cycle
system.switch_cpus_1.iq.ISSUE:issued_per_cycle::6       256141      3.91%     97.76% # Number of insts issued each cycle
system.switch_cpus_1.iq.ISSUE:issued_per_cycle::7       104848      1.60%     99.36% # Number of insts issued each cycle
system.switch_cpus_1.iq.ISSUE:issued_per_cycle::8        42121      0.64%    100.00% # Number of insts issued each cycle
system.switch_cpus_1.iq.ISSUE:issued_per_cycle::overflows            0      0.00%    100.00% # Number of insts issued each cycle
system.switch_cpus_1.iq.ISSUE:issued_per_cycle::min_value            0                       # Number of insts issued each cycle
system.switch_cpus_1.iq.ISSUE:issued_per_cycle::max_value            8                       # Number of insts issued each cycle
system.switch_cpus_1.iq.ISSUE:issued_per_cycle::total      6548057                       # Number of insts issued each cycle
system.switch_cpus_1.iq.ISSUE:rate           1.641403                       # Inst issue rate
system.switch_cpus_1.iq.iqInstsAdded         11315937                       # Number of instructions added to the IQ (excludes non-spec)
system.switch_cpus_1.iq.iqInstsIssued        11030359                       # Number of instructions issued
system.switch_cpus_1.iq.iqSquashedInstsExamined      1315745                       # Number of squashed instructions iterated over during squash; mainly for profiling
system.switch_cpus_1.iq.iqSquashedInstsIssued        37460                       # Number of squashed instructions issued
system.switch_cpus_1.iq.iqSquashedOperandsExamined       876945                       # Number of squashed operands that are examined and possibly removed from graph
system.switch_cpus_1.itb.data_accesses              0                       # DTB accesses
system.switch_cpus_1.itb.data_acv                   0                       # DTB access violations
system.switch_cpus_1.itb.data_hits                  0                       # DTB hits
system.switch_cpus_1.itb.data_misses                0                       # DTB misses
system.switch_cpus_1.itb.fetch_accesses       1272037                       # ITB accesses
system.switch_cpus_1.itb.fetch_acv                  0                       # ITB acv
system.switch_cpus_1.itb.fetch_hits           1272015                       # ITB hits
system.switch_cpus_1.itb.fetch_misses              22                       # ITB misses
system.switch_cpus_1.itb.read_accesses              0                       # DTB read accesses
system.switch_cpus_1.itb.read_acv                   0                       # DTB read access violations
system.switch_cpus_1.itb.read_hits                  0                       # DTB read hits
system.switch_cpus_1.itb.read_misses                0                       # DTB read misses
system.switch_cpus_1.itb.write_accesses             0                       # DTB write accesses
system.switch_cpus_1.itb.write_acv                  0                       # DTB write access violations
system.switch_cpus_1.itb.write_hits                 0                       # DTB write hits
system.switch_cpus_1.itb.write_misses               0                       # DTB write misses
system.switch_cpus_1.memDep0.conflictingLoads       611022                       # Number of conflicting loads.
system.switch_cpus_1.memDep0.conflictingStores       448710                       # Number of conflicting stores.
system.switch_cpus_1.memDep0.insertedLoads      2738365                       # Number of loads inserted to the mem dependence unit.
system.switch_cpus_1.memDep0.insertedStores      1830879                       # Number of stores inserted to the mem dependence unit.
system.switch_cpus_1.numCycles                6720079                       # number of cpu cycles simulated
system.switch_cpus_1.rename.RENAME:BlockCycles       487392                       # Number of cycles rename is blocking
system.switch_cpus_1.rename.RENAME:CommittedMaps      8012480                       # Number of HB maps that are committed
system.switch_cpus_1.rename.RENAME:IQFullEvents        58217                       # Number of times rename has blocked due to IQ full
system.switch_cpus_1.rename.RENAME:IdleCycles      3504410                       # Number of cycles rename is idle
system.switch_cpus_1.rename.RENAME:LSQFullEvents       435492                       # Number of times rename has blocked due to LSQ full
system.switch_cpus_1.rename.RENAME:ROBFullEvents          162                       # Number of times rename has blocked due to ROB full
system.switch_cpus_1.rename.RENAME:RenameLookups     19658795                       # Number of register rename lookups that rename has made
system.switch_cpus_1.rename.RENAME:RenamedInsts     12987431                       # Number of instructions processed by rename
system.switch_cpus_1.rename.RENAME:RenamedOperands      9868352                       # Number of destination operands rename has renamed
system.switch_cpus_1.rename.RENAME:RunCycles      1806676                       # Number of cycles rename is running
system.switch_cpus_1.rename.RENAME:SquashCycles       252488                       # Number of cycles rename is squashing
system.switch_cpus_1.rename.RENAME:UnblockCycles       497090                       # Number of cycles rename is unblocking
system.switch_cpus_1.rename.RENAME:UndoneMaps      1855815                       # Number of HB maps that are undone due to squashing
system.switch_cpus_1.rename.RENAME:serializeStallCycles            0                       # count of cycles rename stalled for serializing inst
system.switch_cpus_1.rename.RENAME:serializingInsts            0                       # count of serializing insts renamed
system.switch_cpus_1.rename.RENAME:skidInsts       957424                       # count of insts added to the skid buffer
system.switch_cpus_1.rename.RENAME:tempSerializingInsts            0                       # count of temporary serializing insts renamed
system.switch_cpus_1.timesIdled                 28333                       # Number of times that the entire CPU went into an idle state and unscheduled itself

---------- End Simulation Statistics   ----------
