
---------- Begin Simulation Statistics ----------
host_inst_rate                                 597246                       # Simulator instruction rate (inst/s)
host_mem_usage                                 398640                       # Number of bytes of host memory used
host_seconds                                    33.49                       # Real time elapsed on the host
host_tick_rate                              546185396                       # Simulator tick rate (ticks/s)
sim_freq                                 1000000000000                       # Frequency of simulated ticks
sim_insts                                    20000003                       # Number of instructions simulated
sim_seconds                                  0.018291                       # Number of seconds simulated
sim_ticks                                 18291099500                       # Number of ticks simulated
system.cpu.dcache.ReadReq_accesses            3327866                       # number of ReadReq accesses(hits+misses)
system.cpu.dcache.ReadReq_avg_miss_latency 28279.578068                       # average ReadReq miss latency
system.cpu.dcache.ReadReq_avg_mshr_miss_latency 22905.294335                       # average ReadReq mshr miss latency
system.cpu.dcache.ReadReq_hits                3223963                       # number of ReadReq hits
system.cpu.dcache.ReadReq_miss_latency     2938333000                       # number of ReadReq miss cycles
system.cpu.dcache.ReadReq_miss_rate          0.031222                       # miss rate for ReadReq accesses
system.cpu.dcache.ReadReq_misses               103903                       # number of ReadReq misses
system.cpu.dcache.ReadReq_mshr_hits             19832                       # number of ReadReq MSHR hits
system.cpu.dcache.ReadReq_mshr_miss_latency   1925671000                       # number of ReadReq MSHR miss cycles
system.cpu.dcache.ReadReq_mshr_miss_rate     0.025263                       # mshr miss rate for ReadReq accesses
system.cpu.dcache.ReadReq_mshr_misses           84071                       # number of ReadReq MSHR misses
system.cpu.dcache.WriteReq_accesses           2822830                       # number of WriteReq accesses(hits+misses)
system.cpu.dcache.WriteReq_avg_miss_latency 53527.140810                       # average WriteReq miss latency
system.cpu.dcache.WriteReq_avg_mshr_miss_latency 57486.679484                       # average WriteReq mshr miss latency
system.cpu.dcache.WriteReq_hits               2817248                       # number of WriteReq hits
system.cpu.dcache.WriteReq_miss_latency     298788500                       # number of WriteReq miss cycles
system.cpu.dcache.WriteReq_miss_rate         0.001977                       # miss rate for WriteReq accesses
system.cpu.dcache.WriteReq_misses                5582                       # number of WriteReq misses
system.cpu.dcache.WriteReq_mshr_hits             1940                       # number of WriteReq MSHR hits
system.cpu.dcache.WriteReq_mshr_miss_latency    209309000                       # number of WriteReq MSHR miss cycles
system.cpu.dcache.WriteReq_mshr_miss_rate     0.001290                       # mshr miss rate for WriteReq accesses
system.cpu.dcache.WriteReq_mshr_misses           3641                       # number of WriteReq MSHR misses
system.cpu.dcache.avg_blocked_cycles::no_mshrs     no_value                       # average number of cycles each access was blocked
system.cpu.dcache.avg_blocked_cycles::no_targets 26592.680986                       # average number of cycles each access was blocked
system.cpu.dcache.avg_refs                  69.458450                       # Average number of references to valid blocks.
system.cpu.dcache.blocked::no_mshrs                 0                       # number of cycles access was blocked
system.cpu.dcache.blocked::no_targets            3771                       # number of cycles access was blocked
system.cpu.dcache.blocked_cycles::no_mshrs            0                       # number of cycles access was blocked
system.cpu.dcache.blocked_cycles::no_targets    100281000                       # number of cycles access was blocked
system.cpu.dcache.cache_copies                      0                       # number of cache copies performed
system.cpu.dcache.demand_accesses             6150696                       # number of demand (read+write) accesses
system.cpu.dcache.demand_avg_miss_latency 29566.803672                       # average overall miss latency
system.cpu.dcache.demand_avg_mshr_miss_latency 24340.797154                       # average overall mshr miss latency
system.cpu.dcache.demand_hits                 6041211                       # number of demand (read+write) hits
system.cpu.dcache.demand_miss_latency      3237121500                       # number of demand (read+write) miss cycles
system.cpu.dcache.demand_miss_rate           0.017800                       # miss rate for demand accesses
system.cpu.dcache.demand_misses                109485                       # number of demand (read+write) misses
system.cpu.dcache.demand_mshr_hits              21772                       # number of demand (read+write) MSHR hits
system.cpu.dcache.demand_mshr_miss_latency   2134980000                       # number of demand (read+write) MSHR miss cycles
system.cpu.dcache.demand_mshr_miss_rate      0.014260                       # mshr miss rate for demand accesses
system.cpu.dcache.demand_mshr_misses            87712                       # number of demand (read+write) MSHR misses
system.cpu.dcache.fast_writes                       0                       # number of fast writes performed
system.cpu.dcache.mshr_cap_events                   0                       # number of times MSHR cap was activated
system.cpu.dcache.no_allocate_misses                0                       # Number of misses that were no-allocate
system.cpu.dcache.occ_%::0                   0.980862                       # Average percentage of cache occupancy
system.cpu.dcache.occ_blocks::0           1004.402879                       # Average occupied blocks per context
system.cpu.dcache.overall_accesses            6150696                       # number of overall (read+write) accesses
system.cpu.dcache.overall_avg_miss_latency 29566.803672                       # average overall miss latency
system.cpu.dcache.overall_avg_mshr_miss_latency 24340.797154                       # average overall mshr miss latency
system.cpu.dcache.overall_avg_mshr_uncacheable_latency     no_value                       # average overall mshr uncacheable latency
system.cpu.dcache.overall_hits                6041211                       # number of overall hits
system.cpu.dcache.overall_miss_latency     3237121500                       # number of overall miss cycles
system.cpu.dcache.overall_miss_rate          0.017800                       # miss rate for overall accesses
system.cpu.dcache.overall_misses               109485                       # number of overall misses
system.cpu.dcache.overall_mshr_hits             21772                       # number of overall MSHR hits
system.cpu.dcache.overall_mshr_miss_latency   2134980000                       # number of overall MSHR miss cycles
system.cpu.dcache.overall_mshr_miss_rate     0.014260                       # mshr miss rate for overall accesses
system.cpu.dcache.overall_mshr_misses           87712                       # number of overall MSHR misses
system.cpu.dcache.overall_mshr_uncacheable_latency            0                       # number of overall MSHR uncacheable cycles
system.cpu.dcache.overall_mshr_uncacheable_misses            0                       # number of overall MSHR uncacheable misses
system.cpu.dcache.prefetch_accuracy          no_value                       # ratio of good prefetches to total prefetches
system.cpu.dcache.prefetch_hits                     0                       # number of prefetched blocks that were accessed
system.cpu.dcache.replacements                  85967                       # number of replacements
system.cpu.dcache.sampled_refs                  86991                       # Sample count of references to valid blocks.
system.cpu.dcache.soft_prefetch_mshr_full            0                       # number of mshr full events for SW prefetching instrutions
system.cpu.dcache.tagsinuse               1004.402879                       # Cycle average of tags in use
system.cpu.dcache.total_refs                  6042260                       # Total number of references to valid blocks.
system.cpu.dcache.warmup_cycle           502145075000                       # Cycle when the warmup percentage was hit.
system.cpu.dcache.writebacks                     3598                       # number of writebacks
system.cpu.dtb.data_accesses                        1                       # DTB accesses
system.cpu.dtb.data_acv                             0                       # DTB access violations
system.cpu.dtb.data_hits                            1                       # DTB hits
system.cpu.dtb.data_misses                          0                       # DTB misses
system.cpu.dtb.fetch_accesses                       0                       # ITB accesses
system.cpu.dtb.fetch_acv                            0                       # ITB acv
system.cpu.dtb.fetch_hits                           0                       # ITB hits
system.cpu.dtb.fetch_misses                         0                       # ITB misses
system.cpu.dtb.read_accesses                        0                       # DTB read accesses
system.cpu.dtb.read_acv                             0                       # DTB read access violations
system.cpu.dtb.read_hits                            0                       # DTB read hits
system.cpu.dtb.read_misses                          0                       # DTB read misses
system.cpu.dtb.write_accesses                       1                       # DTB write accesses
system.cpu.dtb.write_acv                            0                       # DTB write access violations
system.cpu.dtb.write_hits                           1                       # DTB write hits
system.cpu.dtb.write_misses                         0                       # DTB write misses
system.cpu.icache.ReadReq_accesses           12282970                       # number of ReadReq accesses(hits+misses)
system.cpu.icache.ReadReq_avg_miss_latency        48000                       # average ReadReq miss latency
system.cpu.icache.ReadReq_avg_mshr_miss_latency        56875                       # average ReadReq mshr miss latency
system.cpu.icache.ReadReq_hits               12282957                       # number of ReadReq hits
system.cpu.icache.ReadReq_miss_latency         624000                       # number of ReadReq miss cycles
system.cpu.icache.ReadReq_miss_rate          0.000001                       # miss rate for ReadReq accesses
system.cpu.icache.ReadReq_misses                   13                       # number of ReadReq misses
system.cpu.icache.ReadReq_mshr_hits                 4                       # number of ReadReq MSHR hits
system.cpu.icache.ReadReq_mshr_miss_latency       455000                       # number of ReadReq MSHR miss cycles
system.cpu.icache.ReadReq_mshr_miss_rate     0.000001                       # mshr miss rate for ReadReq accesses
system.cpu.icache.ReadReq_mshr_misses               8                       # number of ReadReq MSHR misses
system.cpu.icache.avg_blocked_cycles::no_mshrs     no_value                       # average number of cycles each access was blocked
system.cpu.icache.avg_blocked_cycles::no_targets        22000                       # average number of cycles each access was blocked
system.cpu.icache.avg_refs                    1364773                       # Average number of references to valid blocks.
system.cpu.icache.blocked::no_mshrs                 0                       # number of cycles access was blocked
system.cpu.icache.blocked::no_targets               1                       # number of cycles access was blocked
system.cpu.icache.blocked_cycles::no_mshrs            0                       # number of cycles access was blocked
system.cpu.icache.blocked_cycles::no_targets        22000                       # number of cycles access was blocked
system.cpu.icache.cache_copies                      0                       # number of cache copies performed
system.cpu.icache.demand_accesses            12282970                       # number of demand (read+write) accesses
system.cpu.icache.demand_avg_miss_latency        48000                       # average overall miss latency
system.cpu.icache.demand_avg_mshr_miss_latency        56875                       # average overall mshr miss latency
system.cpu.icache.demand_hits                12282957                       # number of demand (read+write) hits
system.cpu.icache.demand_miss_latency          624000                       # number of demand (read+write) miss cycles
system.cpu.icache.demand_miss_rate           0.000001                       # miss rate for demand accesses
system.cpu.icache.demand_misses                    13                       # number of demand (read+write) misses
system.cpu.icache.demand_mshr_hits                  4                       # number of demand (read+write) MSHR hits
system.cpu.icache.demand_mshr_miss_latency       455000                       # number of demand (read+write) MSHR miss cycles
system.cpu.icache.demand_mshr_miss_rate      0.000001                       # mshr miss rate for demand accesses
system.cpu.icache.demand_mshr_misses                8                       # number of demand (read+write) MSHR misses
system.cpu.icache.fast_writes                       0                       # number of fast writes performed
system.cpu.icache.mshr_cap_events                   0                       # number of times MSHR cap was activated
system.cpu.icache.no_allocate_misses                0                       # Number of misses that were no-allocate
system.cpu.icache.occ_%::0                   0.012826                       # Average percentage of cache occupancy
system.cpu.icache.occ_blocks::0              6.566949                       # Average occupied blocks per context
system.cpu.icache.overall_accesses           12282970                       # number of overall (read+write) accesses
system.cpu.icache.overall_avg_miss_latency        48000                       # average overall miss latency
system.cpu.icache.overall_avg_mshr_miss_latency        56875                       # average overall mshr miss latency
system.cpu.icache.overall_avg_mshr_uncacheable_latency     no_value                       # average overall mshr uncacheable latency
system.cpu.icache.overall_hits               12282957                       # number of overall hits
system.cpu.icache.overall_miss_latency         624000                       # number of overall miss cycles
system.cpu.icache.overall_miss_rate          0.000001                       # miss rate for overall accesses
system.cpu.icache.overall_misses                   13                       # number of overall misses
system.cpu.icache.overall_mshr_hits                 4                       # number of overall MSHR hits
system.cpu.icache.overall_mshr_miss_latency       455000                       # number of overall MSHR miss cycles
system.cpu.icache.overall_mshr_miss_rate     0.000001                       # mshr miss rate for overall accesses
system.cpu.icache.overall_mshr_misses               8                       # number of overall MSHR misses
system.cpu.icache.overall_mshr_uncacheable_latency            0                       # number of overall MSHR uncacheable cycles
system.cpu.icache.overall_mshr_uncacheable_misses            0                       # number of overall MSHR uncacheable misses
system.cpu.icache.prefetch_accuracy          no_value                       # ratio of good prefetches to total prefetches
system.cpu.icache.prefetch_hits                     0                       # number of prefetched blocks that were accessed
system.cpu.icache.replacements                      0                       # number of replacements
system.cpu.icache.sampled_refs                      9                       # Sample count of references to valid blocks.
system.cpu.icache.soft_prefetch_mshr_full            0                       # number of mshr full events for SW prefetching instrutions
system.cpu.icache.tagsinuse                  6.566949                       # Cycle average of tags in use
system.cpu.icache.total_refs                 12282957                       # Total number of references to valid blocks.
system.cpu.icache.warmup_cycle                      0                       # Cycle when the warmup percentage was hit.
system.cpu.icache.writebacks                        0                       # number of writebacks
system.cpu.idle_fraction                            0                       # Percentage of idle cycles
system.cpu.itb.data_accesses                        0                       # DTB accesses
system.cpu.itb.data_acv                             0                       # DTB access violations
system.cpu.itb.data_hits                            0                       # DTB hits
system.cpu.itb.data_misses                          0                       # DTB misses
system.cpu.itb.fetch_accesses                       2                       # ITB accesses
system.cpu.itb.fetch_acv                            0                       # ITB acv
system.cpu.itb.fetch_hits                           2                       # ITB hits
system.cpu.itb.fetch_misses                         0                       # ITB misses
system.cpu.itb.read_accesses                        0                       # DTB read accesses
system.cpu.itb.read_acv                             0                       # DTB read access violations
system.cpu.itb.read_hits                            0                       # DTB read hits
system.cpu.itb.read_misses                          0                       # DTB read misses
system.cpu.itb.write_accesses                       0                       # DTB write accesses
system.cpu.itb.write_acv                            0                       # DTB write access violations
system.cpu.itb.write_hits                           0                       # DTB write hits
system.cpu.itb.write_misses                         0                       # DTB write misses
system.cpu.not_idle_fraction                        1                       # Percentage of non-idle cycles
system.cpu.numCycles                                2                       # number of cpu cycles simulated
system.cpu.num_insts                                2                       # Number of instructions executed
system.cpu.num_refs                                 1                       # Number of memory references
system.cpu.workload.PROG:num_syscalls               0                       # Number of system calls
system.l2.HardPFReq_avg_mshr_miss_latency 31819.997549                       # average HardPFReq mshr miss latency
system.l2.HardPFReq_mshr_miss_latency       103860472                       # number of HardPFReq MSHR miss cycles
system.l2.HardPFReq_mshr_miss_rate                inf                       # mshr miss rate for HardPFReq accesses
system.l2.HardPFReq_mshr_misses                  3264                       # number of HardPFReq MSHR misses
system.l2.ReadExReq_accesses                     2920                       # number of ReadExReq accesses(hits+misses)
system.l2.ReadExReq_avg_miss_latency     56420.376712                       # average ReadExReq miss latency
system.l2.ReadExReq_avg_mshr_miss_latency 40462.658445                       # average ReadExReq mshr miss latency
system.l2.ReadExReq_miss_latency            164747500                       # number of ReadExReq miss cycles
system.l2.ReadExReq_miss_rate                       1                       # miss rate for ReadExReq accesses
system.l2.ReadExReq_misses                       2920                       # number of ReadExReq misses
system.l2.ReadExReq_mshr_miss_latency       118110500                       # number of ReadExReq MSHR miss cycles
system.l2.ReadExReq_mshr_miss_rate           0.999658                       # mshr miss rate for ReadExReq accesses
system.l2.ReadExReq_mshr_misses                  2919                       # number of ReadExReq MSHR misses
system.l2.ReadReq_accesses                      84080                       # number of ReadReq accesses(hits+misses)
system.l2.ReadReq_avg_miss_latency       57388.220454                       # average ReadReq miss latency
system.l2.ReadReq_avg_mshr_miss_latency  41536.901354                       # average ReadReq mshr miss latency
system.l2.ReadReq_hits                          63468                       # number of ReadReq hits
system.l2.ReadReq_miss_latency             1182886000                       # number of ReadReq miss cycles
system.l2.ReadReq_miss_rate                  0.245147                       # miss rate for ReadReq accesses
system.l2.ReadReq_misses                        20612                       # number of ReadReq misses
system.l2.ReadReq_mshr_hits                         2                       # number of ReadReq MSHR hits
system.l2.ReadReq_mshr_miss_latency         856034000                       # number of ReadReq MSHR miss cycles
system.l2.ReadReq_mshr_miss_rate             0.245112                       # mshr miss rate for ReadReq accesses
system.l2.ReadReq_mshr_misses                   20609                       # number of ReadReq MSHR misses
system.l2.UpgradeReq_accesses                     722                       # number of UpgradeReq accesses(hits+misses)
system.l2.UpgradeReq_avg_miss_latency    56541.551247                       # average UpgradeReq miss latency
system.l2.UpgradeReq_avg_mshr_miss_latency 40632.271468                       # average UpgradeReq mshr miss latency
system.l2.UpgradeReq_miss_latency            40823000                       # number of UpgradeReq miss cycles
system.l2.UpgradeReq_miss_rate                      1                       # miss rate for UpgradeReq accesses
system.l2.UpgradeReq_misses                       722                       # number of UpgradeReq misses
system.l2.UpgradeReq_mshr_miss_latency       29336500                       # number of UpgradeReq MSHR miss cycles
system.l2.UpgradeReq_mshr_miss_rate                 1                       # mshr miss rate for UpgradeReq accesses
system.l2.UpgradeReq_mshr_misses                  722                       # number of UpgradeReq MSHR misses
system.l2.Writeback_accesses                     3598                       # number of Writeback accesses(hits+misses)
system.l2.Writeback_hits                         3598                       # number of Writeback hits
system.l2.avg_blocked_cycles::no_mshrs       no_value                       # average number of cycles each access was blocked
system.l2.avg_blocked_cycles::no_targets     no_value                       # average number of cycles each access was blocked
system.l2.avg_refs                           2.784598                       # Average number of references to valid blocks.
system.l2.blocked::no_mshrs                         0                       # number of cycles access was blocked
system.l2.blocked::no_targets                       0                       # number of cycles access was blocked
system.l2.blocked_cycles::no_mshrs                  0                       # number of cycles access was blocked
system.l2.blocked_cycles::no_targets                0                       # number of cycles access was blocked
system.l2.cache_copies                              0                       # number of cache copies performed
system.l2.demand_accesses                       87000                       # number of demand (read+write) accesses
system.l2.demand_avg_miss_latency        57268.124256                       # average overall miss latency
system.l2.demand_avg_mshr_miss_latency   41403.625468                       # average overall mshr miss latency
system.l2.demand_hits                           63468                       # number of demand (read+write) hits
system.l2.demand_miss_latency              1347633500                       # number of demand (read+write) miss cycles
system.l2.demand_miss_rate                   0.270483                       # miss rate for demand accesses
system.l2.demand_misses                         23532                       # number of demand (read+write) misses
system.l2.demand_mshr_hits                          2                       # number of demand (read+write) MSHR hits
system.l2.demand_mshr_miss_latency          974144500                       # number of demand (read+write) MSHR miss cycles
system.l2.demand_mshr_miss_rate              0.270437                       # mshr miss rate for demand accesses
system.l2.demand_mshr_misses                    23528                       # number of demand (read+write) MSHR misses
system.l2.fast_writes                               0                       # number of fast writes performed
system.l2.mshr_cap_events                           0                       # number of times MSHR cap was activated
system.l2.no_allocate_misses                        0                       # Number of misses that were no-allocate
system.l2.occ_%::0                           0.584611                       # Average percentage of cache occupancy
system.l2.occ_%::1                           0.000437                       # Average percentage of cache occupancy
system.l2.occ_blocks::0                   9578.260666                       # Average occupied blocks per context
system.l2.occ_blocks::1                      7.165886                       # Average occupied blocks per context
system.l2.overall_accesses                      87000                       # number of overall (read+write) accesses
system.l2.overall_avg_miss_latency       57268.124256                       # average overall miss latency
system.l2.overall_avg_mshr_miss_latency  40236.076889                       # average overall mshr miss latency
system.l2.overall_avg_mshr_uncacheable_latency     no_value                       # average overall mshr uncacheable latency
system.l2.overall_hits                          63468                       # number of overall hits
system.l2.overall_miss_latency             1347633500                       # number of overall miss cycles
system.l2.overall_miss_rate                  0.270483                       # miss rate for overall accesses
system.l2.overall_misses                        23532                       # number of overall misses
system.l2.overall_mshr_hits                         2                       # number of overall MSHR hits
system.l2.overall_mshr_miss_latency        1078004972                       # number of overall MSHR miss cycles
system.l2.overall_mshr_miss_rate             0.307954                       # mshr miss rate for overall accesses
system.l2.overall_mshr_misses                   26792                       # number of overall MSHR misses
system.l2.overall_mshr_uncacheable_latency            0                       # number of overall MSHR uncacheable cycles
system.l2.overall_mshr_uncacheable_misses            0                       # number of overall MSHR uncacheable misses
system.l2.prefetch_accuracy                  0.963848                       # ratio of good prefetches to total prefetches
system.l2.prefetch_hits                          3146                       # number of prefetched blocks that were accessed
system.l2.prefetcher.num_hwpf_already_in_prefetcher            0                       # number of hwpf that were already in the prefetch queue
system.l2.prefetcher.num_hwpf_evicted               0                       # number of hwpf removed due to no buffer left
system.l2.prefetcher.num_hwpf_identified         3265                       # number of hwpf identified
system.l2.prefetcher.num_hwpf_issued             3264                       # number of hwpf issued
system.l2.prefetcher.num_hwpf_removed_MSHR_hit            1                       # number of hwpf removed because MSHR allocated
system.l2.prefetcher.num_hwpf_span_page             0                       # number of hwpf spanning a virtual page
system.l2.prefetcher.num_hwpf_squashed_from_miss            0                       # number of hwpf that got squashed due to a miss aborting calculation time
system.l2.replacements                           8964                       # number of replacements
system.l2.sampled_refs                          23867                       # Sample count of references to valid blocks.
system.l2.soft_prefetch_mshr_full                   0                       # number of mshr full events for SW prefetching instrutions
system.l2.tagsinuse                       9585.426552                       # Cycle average of tags in use
system.l2.total_refs                            66460                       # Total number of references to valid blocks.
system.l2.warmup_cycle                              0                       # Cycle when the warmup percentage was hit.
system.l2.writebacks                             1275                       # number of writebacks
system.switch_cpus.dtb.data_accesses          2972120                       # DTB accesses
system.switch_cpus.dtb.data_acv                     0                       # DTB access violations
system.switch_cpus.dtb.data_hits              2969257                       # DTB hits
system.switch_cpus.dtb.data_misses               2863                       # DTB misses
system.switch_cpus.dtb.fetch_accesses               0                       # ITB accesses
system.switch_cpus.dtb.fetch_acv                    0                       # ITB acv
system.switch_cpus.dtb.fetch_hits                   0                       # ITB hits
system.switch_cpus.dtb.fetch_misses                 0                       # ITB misses
system.switch_cpus.dtb.read_accesses          1546660                       # DTB read accesses
system.switch_cpus.dtb.read_acv                     0                       # DTB read access violations
system.switch_cpus.dtb.read_hits              1543848                       # DTB read hits
system.switch_cpus.dtb.read_misses               2812                       # DTB read misses
system.switch_cpus.dtb.write_accesses         1425460                       # DTB write accesses
system.switch_cpus.dtb.write_acv                    0                       # DTB write access violations
system.switch_cpus.dtb.write_hits             1425409                       # DTB write hits
system.switch_cpus.dtb.write_misses                51                       # DTB write misses
system.switch_cpus.idle_fraction                    1                       # Percentage of idle cycles
system.switch_cpus.itb.data_accesses                0                       # DTB accesses
system.switch_cpus.itb.data_acv                     0                       # DTB access violations
system.switch_cpus.itb.data_hits                    0                       # DTB hits
system.switch_cpus.itb.data_misses                  0                       # DTB misses
system.switch_cpus.itb.fetch_accesses        10002866                       # ITB accesses
system.switch_cpus.itb.fetch_acv                    0                       # ITB acv
system.switch_cpus.itb.fetch_hits            10002865                       # ITB hits
system.switch_cpus.itb.fetch_misses                 1                       # ITB misses
system.switch_cpus.itb.read_accesses                0                       # DTB read accesses
system.switch_cpus.itb.read_acv                     0                       # DTB read access violations
system.switch_cpus.itb.read_hits                    0                       # DTB read hits
system.switch_cpus.itb.read_misses                  0                       # DTB read misses
system.switch_cpus.itb.write_accesses               0                       # DTB write accesses
system.switch_cpus.itb.write_acv                    0                       # DTB write access violations
system.switch_cpus.itb.write_hits                   0                       # DTB write hits
system.switch_cpus.itb.write_misses                 0                       # DTB write misses
system.switch_cpus.not_idle_fraction                0                       # Percentage of non-idle cycles
system.switch_cpus.numCycles                 28083718                       # number of cpu cycles simulated
system.switch_cpus.num_insts                 10000001                       # Number of instructions executed
system.switch_cpus.num_refs                   2972120                       # Number of memory references
system.switch_cpus_1.BPredUnit.BTBCorrect            0                       # Number of correct BTB predictions (this stat may not work properly.
system.switch_cpus_1.BPredUnit.BTBHits        2077160                       # Number of BTB hits
system.switch_cpus_1.BPredUnit.BTBLookups      2138121                       # Number of BTB lookups
system.switch_cpus_1.BPredUnit.RASInCorrect            0                       # Number of incorrect RAS predictions.
system.switch_cpus_1.BPredUnit.condIncorrect       159150                       # Number of conditional branches incorrect
system.switch_cpus_1.BPredUnit.condPredicted      2189982                       # Number of conditional branches predicted
system.switch_cpus_1.BPredUnit.lookups        2349853                       # Number of BP lookups
system.switch_cpus_1.BPredUnit.usedRAS              0                       # Number of times the RAS was used to get a target.
system.switch_cpus_1.commit.COM:branches      1623752                       # Number of branches committed
system.switch_cpus_1.commit.COM:bw_lim_events        95909                       # number cycles where commit BW limit reached
system.switch_cpus_1.commit.COM:bw_limited            0                       # number of insts not committed due to BW limits
system.switch_cpus_1.commit.COM:committed_per_cycle::samples      7964983                       # Number of insts commited each cycle
system.switch_cpus_1.commit.COM:committed_per_cycle::mean     1.305528                       # Number of insts commited each cycle
system.switch_cpus_1.commit.COM:committed_per_cycle::stdev     1.771929                       # Number of insts commited each cycle
system.switch_cpus_1.commit.COM:committed_per_cycle::underflows            0      0.00%      0.00% # Number of insts commited each cycle
system.switch_cpus_1.commit.COM:committed_per_cycle::0      3396208     42.64%     42.64% # Number of insts commited each cycle
system.switch_cpus_1.commit.COM:committed_per_cycle::1      2836881     35.62%     78.26% # Number of insts commited each cycle
system.switch_cpus_1.commit.COM:committed_per_cycle::2       166131      2.09%     80.34% # Number of insts commited each cycle
system.switch_cpus_1.commit.COM:committed_per_cycle::3        73972      0.93%     81.27% # Number of insts commited each cycle
system.switch_cpus_1.commit.COM:committed_per_cycle::4       752669      9.45%     90.72% # Number of insts commited each cycle
system.switch_cpus_1.commit.COM:committed_per_cycle::5       633425      7.95%     98.67% # Number of insts commited each cycle
system.switch_cpus_1.commit.COM:committed_per_cycle::6         6140      0.08%     98.75% # Number of insts commited each cycle
system.switch_cpus_1.commit.COM:committed_per_cycle::7         3648      0.05%     98.80% # Number of insts commited each cycle
system.switch_cpus_1.commit.COM:committed_per_cycle::8        95909      1.20%    100.00% # Number of insts commited each cycle
system.switch_cpus_1.commit.COM:committed_per_cycle::overflows            0      0.00%    100.00% # Number of insts commited each cycle
system.switch_cpus_1.commit.COM:committed_per_cycle::min_value            0                       # Number of insts commited each cycle
system.switch_cpus_1.commit.COM:committed_per_cycle::max_value            8                       # Number of insts commited each cycle
system.switch_cpus_1.commit.COM:committed_per_cycle::total      7964983                       # Number of insts commited each cycle
system.switch_cpus_1.commit.COM:count        10398508                       # Number of instructions committed
system.switch_cpus_1.commit.COM:loads         1606582                       # Number of loads committed
system.switch_cpus_1.commit.COM:membars             0                       # Number of memory barriers committed
system.switch_cpus_1.commit.COM:refs          3004003                       # Number of memory references committed
system.switch_cpus_1.commit.COM:swp_count            0                       # Number of s/w prefetches committed
system.switch_cpus_1.commit.branchMispredicts       159146                       # The number of times a branch was mispredicted
system.switch_cpus_1.commit.commitCommittedInsts     10398508                       # The number of committed instructions
system.switch_cpus_1.commit.commitSquashedInsts      3031811                       # The number of squashed insts skipped by commit
system.switch_cpus_1.committedInsts          10000000                       # Number of Instructions Simulated
system.switch_cpus_1.committedInsts_total     10000000                       # Number of Instructions Simulated
system.switch_cpus_1.cpi                     0.849848                       # CPI: Cycles Per Instruction
system.switch_cpus_1.cpi_total               0.849848                       # CPI: Total CPI of All Threads
system.switch_cpus_1.decode.DECODE:BlockedCycles       105248                       # Number of cycles decode is blocked
system.switch_cpus_1.decode.DECODE:BranchMispred          209                       # Number of times decode detected a branch misprediction
system.switch_cpus_1.decode.DECODE:BranchResolved       153492                       # Number of times decode resolved a branch
system.switch_cpus_1.decode.DECODE:DecodedInsts     14643074                       # Number of instructions handled by decode
system.switch_cpus_1.decode.DECODE:IdleCycles      4583631                       # Number of cycles decode is idle
system.switch_cpus_1.decode.DECODE:RunCycles      3271636                       # Number of cycles decode is running
system.switch_cpus_1.decode.DECODE:SquashCycles       515050                       # Number of cycles decode is squashing
system.switch_cpus_1.decode.DECODE:SquashedInsts            8                       # Number of squashed instructions handled by decode
system.switch_cpus_1.decode.DECODE:UnblockCycles         4467                       # Number of cycles decode is unblocking
system.switch_cpus_1.dtb.data_accesses        3586537                       # DTB accesses
system.switch_cpus_1.dtb.data_acv                   0                       # DTB access violations
system.switch_cpus_1.dtb.data_hits            3579972                       # DTB hits
system.switch_cpus_1.dtb.data_misses             6565                       # DTB misses
system.switch_cpus_1.dtb.fetch_accesses             0                       # ITB accesses
system.switch_cpus_1.dtb.fetch_acv                  0                       # ITB acv
system.switch_cpus_1.dtb.fetch_hits                 0                       # ITB hits
system.switch_cpus_1.dtb.fetch_misses               0                       # ITB misses
system.switch_cpus_1.dtb.read_accesses        1949229                       # DTB read accesses
system.switch_cpus_1.dtb.read_acv                   0                       # DTB read access violations
system.switch_cpus_1.dtb.read_hits            1942917                       # DTB read hits
system.switch_cpus_1.dtb.read_misses             6312                       # DTB read misses
system.switch_cpus_1.dtb.write_accesses       1637308                       # DTB write accesses
system.switch_cpus_1.dtb.write_acv                  0                       # DTB write access violations
system.switch_cpus_1.dtb.write_hits           1637055                       # DTB write hits
system.switch_cpus_1.dtb.write_misses             253                       # DTB write misses
system.switch_cpus_1.fetch.Branches           2349853                       # Number of branches that fetch encountered
system.switch_cpus_1.fetch.CacheLines         2280103                       # Number of cache lines fetched
system.switch_cpus_1.fetch.Cycles             5609254                       # Number of cycles fetch has run and was not squashing or blocked
system.switch_cpus_1.fetch.IcacheSquashes        42446                       # Number of outstanding Icache misses that were squashed
system.switch_cpus_1.fetch.Insts             14946302                       # Number of instructions fetch has processed
system.switch_cpus_1.fetch.SquashCycles        187301                       # Number of cycles fetch has spent squashing
system.switch_cpus_1.fetch.branchRate        0.276503                       # Number of branch fetches per cycle
system.switch_cpus_1.fetch.icacheStallCycles      2280103                       # Number of cycles fetch is stalled on an Icache miss
system.switch_cpus_1.fetch.predictedBranches      2077160                       # Number of branches that fetch has predicted taken
system.switch_cpus_1.fetch.rate              1.758703                       # Number of inst fetches per cycle
system.switch_cpus_1.fetch.rateDist::samples      8480033                       # Number of instructions fetched each cycle (Total)
system.switch_cpus_1.fetch.rateDist::mean     1.762529                       # Number of instructions fetched each cycle (Total)
system.switch_cpus_1.fetch.rateDist::stdev     2.707087                       # Number of instructions fetched each cycle (Total)
system.switch_cpus_1.fetch.rateDist::underflows            0      0.00%      0.00% # Number of instructions fetched each cycle (Total)
system.switch_cpus_1.fetch.rateDist::0        5150882     60.74%     60.74% # Number of instructions fetched each cycle (Total)
system.switch_cpus_1.fetch.rateDist::1         791532      9.33%     70.08% # Number of instructions fetched each cycle (Total)
system.switch_cpus_1.fetch.rateDist::2         187955      2.22%     72.29% # Number of instructions fetched each cycle (Total)
system.switch_cpus_1.fetch.rateDist::3          53030      0.63%     72.92% # Number of instructions fetched each cycle (Total)
system.switch_cpus_1.fetch.rateDist::4         574503      6.77%     79.69% # Number of instructions fetched each cycle (Total)
system.switch_cpus_1.fetch.rateDist::5         636828      7.51%     87.20% # Number of instructions fetched each cycle (Total)
system.switch_cpus_1.fetch.rateDist::6          33497      0.40%     87.60% # Number of instructions fetched each cycle (Total)
system.switch_cpus_1.fetch.rateDist::7         477812      5.63%     93.23% # Number of instructions fetched each cycle (Total)
system.switch_cpus_1.fetch.rateDist::8         573994      6.77%    100.00% # Number of instructions fetched each cycle (Total)
system.switch_cpus_1.fetch.rateDist::overflows            0      0.00%    100.00% # Number of instructions fetched each cycle (Total)
system.switch_cpus_1.fetch.rateDist::min_value            0                       # Number of instructions fetched each cycle (Total)
system.switch_cpus_1.fetch.rateDist::max_value            8                       # Number of instructions fetched each cycle (Total)
system.switch_cpus_1.fetch.rateDist::total      8480033                       # Number of instructions fetched each cycle (Total)
system.switch_cpus_1.idleCycles                 18447                       # Total number of cycles that the CPU has spent unscheduled due to idling
system.switch_cpus_1.iew.EXEC:branches        1993546                       # Number of branches executed
system.switch_cpus_1.iew.EXEC:nop              877493                       # number of nop insts executed
system.switch_cpus_1.iew.EXEC:rate           1.410791                       # Inst execution rate
system.switch_cpus_1.iew.EXEC:refs            3586537                       # number of memory reference insts executed
system.switch_cpus_1.iew.EXEC:stores          1637308                       # Number of stores executed
system.switch_cpus_1.iew.EXEC:swp                   0                       # number of swp insts executed
system.switch_cpus_1.iew.WB:consumers         8744331                       # num instructions consuming a value
system.switch_cpus_1.iew.WB:count            11897150                       # cumulative count of insts written-back
system.switch_cpus_1.iew.WB:fanout           0.765198                       # average fanout of values written-back
system.switch_cpus_1.iew.WB:penalized               0                       # number of instrctions required to write to 'other' IQ
system.switch_cpus_1.iew.WB:penalized_rate            0                       # fraction of instructions written-back that wrote to 'other' IQ
system.switch_cpus_1.iew.WB:producers         6691145                       # num instructions producing a value
system.switch_cpus_1.iew.WB:rate             1.399915                       # insts written-back per cycle
system.switch_cpus_1.iew.WB:sent             11907033                       # cumulative count of insts sent to commit
system.switch_cpus_1.iew.branchMispredicts       173492                       # Number of branch mispredicts detected at execute
system.switch_cpus_1.iew.iewBlockCycles          9314                       # Number of cycles IEW is blocking
system.switch_cpus_1.iew.iewDispLoadInsts      2067680                       # Number of dispatched load instructions
system.switch_cpus_1.iew.iewDispNonSpecInsts            0                       # Number of dispatched non-speculative instructions
system.switch_cpus_1.iew.iewDispSquashedInsts       389482                       # Number of squashed instructions skipped by dispatch
system.switch_cpus_1.iew.iewDispStoreInsts      1712107                       # Number of dispatched store instructions
system.switch_cpus_1.iew.iewDispatchedInsts     13522013                       # Number of instructions dispatched to IQ
system.switch_cpus_1.iew.iewExecLoadInsts      1949229                       # Number of load instructions executed
system.switch_cpus_1.iew.iewExecSquashedInsts       151063                       # Number of squashed instructions skipped in execute
system.switch_cpus_1.iew.iewExecutedInsts     11989575                       # Number of executed instructions
system.switch_cpus_1.iew.iewIQFullEvents           78                       # Number of times the IQ has become full, causing a stall
system.switch_cpus_1.iew.iewIdleCycles              0                       # Number of cycles IEW is idle
system.switch_cpus_1.iew.iewLSQFullEvents           10                       # Number of times the LSQ has become full, causing a stall
system.switch_cpus_1.iew.iewSquashCycles       515050                       # Number of cycles IEW is squashing
system.switch_cpus_1.iew.iewUnblockCycles          373                       # Number of cycles IEW is unblocking
system.switch_cpus_1.iew.lsq.thread.0.blockedLoads            0                       # Number of blocked loads due to partial load-store forwarding
system.switch_cpus_1.iew.lsq.thread.0.cacheBlocked        14733                       # Number of times an access to memory failed due to the cache being blocked
system.switch_cpus_1.iew.lsq.thread.0.forwLoads       144265                       # Number of loads that had data forwarded from stores
system.switch_cpus_1.iew.lsq.thread.0.ignoredResponses        10166                       # Number of memory responses ignored because the instruction is squashed
system.switch_cpus_1.iew.lsq.thread.0.invAddrLoads            0                       # Number of loads ignored due to an invalid address
system.switch_cpus_1.iew.lsq.thread.0.invAddrSwpfs            0                       # Number of software prefetches ignored due to an invalid address
system.switch_cpus_1.iew.lsq.thread.0.memOrderViolation        11343                       # Number of memory ordering violations
system.switch_cpus_1.iew.lsq.thread.0.rescheduledLoads            0                       # Number of loads that were rescheduled
system.switch_cpus_1.iew.lsq.thread.0.squashedLoads       461097                       # Number of loads squashed
system.switch_cpus_1.iew.lsq.thread.0.squashedStores       314685                       # Number of stores squashed
system.switch_cpus_1.iew.memOrderViolationEvents        11343                       # Number of memory order violations
system.switch_cpus_1.iew.predictedNotTakenIncorrect        29206                       # Number of branches that were predicted not taken incorrectly
system.switch_cpus_1.iew.predictedTakenIncorrect       144286                       # Number of branches that were predicted taken incorrectly
system.switch_cpus_1.ipc                     1.176681                       # IPC: Instructions Per Cycle
system.switch_cpus_1.ipc_total               1.176681                       # IPC: Total IPC of All Threads
system.switch_cpus_1.iq.ISSUE:FU_type_0::No_OpClass            0      0.00%      0.00% # Type of FU issued
system.switch_cpus_1.iq.ISSUE:FU_type_0::IntAlu      8516111     70.15%     70.15% # Type of FU issued
system.switch_cpus_1.iq.ISSUE:FU_type_0::IntMult            0      0.00%     70.15% # Type of FU issued
system.switch_cpus_1.iq.ISSUE:FU_type_0::IntDiv            0      0.00%     70.15% # Type of FU issued
system.switch_cpus_1.iq.ISSUE:FU_type_0::FloatAdd            0      0.00%     70.15% # Type of FU issued
system.switch_cpus_1.iq.ISSUE:FU_type_0::FloatCmp            0      0.00%     70.15% # Type of FU issued
system.switch_cpus_1.iq.ISSUE:FU_type_0::FloatCvt            0      0.00%     70.15% # Type of FU issued
system.switch_cpus_1.iq.ISSUE:FU_type_0::FloatMult            0      0.00%     70.15% # Type of FU issued
system.switch_cpus_1.iq.ISSUE:FU_type_0::FloatDiv            0      0.00%     70.15% # Type of FU issued
system.switch_cpus_1.iq.ISSUE:FU_type_0::FloatSqrt            0      0.00%     70.15% # Type of FU issued
system.switch_cpus_1.iq.ISSUE:FU_type_0::MemRead      1964407     16.18%     86.33% # Type of FU issued
system.switch_cpus_1.iq.ISSUE:FU_type_0::MemWrite      1660121     13.67%    100.00% # Type of FU issued
system.switch_cpus_1.iq.ISSUE:FU_type_0::IprAccess            0      0.00%    100.00% # Type of FU issued
system.switch_cpus_1.iq.ISSUE:FU_type_0::InstPrefetch            0      0.00%    100.00% # Type of FU issued
system.switch_cpus_1.iq.ISSUE:FU_type_0::total     12140639                       # Type of FU issued
system.switch_cpus_1.iq.ISSUE:fu_busy_cnt         6660                       # FU busy when requested
system.switch_cpus_1.iq.ISSUE:fu_busy_rate     0.000549                       # FU busy rate (busy events/executed inst)
system.switch_cpus_1.iq.ISSUE:fu_full::No_OpClass            0      0.00%      0.00% # attempts to use FU when none available
system.switch_cpus_1.iq.ISSUE:fu_full::IntAlu         5817     87.34%     87.34% # attempts to use FU when none available
system.switch_cpus_1.iq.ISSUE:fu_full::IntMult            0      0.00%     87.34% # attempts to use FU when none available
system.switch_cpus_1.iq.ISSUE:fu_full::IntDiv            0      0.00%     87.34% # attempts to use FU when none available
system.switch_cpus_1.iq.ISSUE:fu_full::FloatAdd            0      0.00%     87.34% # attempts to use FU when none available
system.switch_cpus_1.iq.ISSUE:fu_full::FloatCmp            0      0.00%     87.34% # attempts to use FU when none available
system.switch_cpus_1.iq.ISSUE:fu_full::FloatCvt            0      0.00%     87.34% # attempts to use FU when none available
system.switch_cpus_1.iq.ISSUE:fu_full::FloatMult            0      0.00%     87.34% # attempts to use FU when none available
system.switch_cpus_1.iq.ISSUE:fu_full::FloatDiv            0      0.00%     87.34% # attempts to use FU when none available
system.switch_cpus_1.iq.ISSUE:fu_full::FloatSqrt            0      0.00%     87.34% # attempts to use FU when none available
system.switch_cpus_1.iq.ISSUE:fu_full::MemRead          638      9.58%     96.92% # attempts to use FU when none available
system.switch_cpus_1.iq.ISSUE:fu_full::MemWrite          205      3.08%    100.00% # attempts to use FU when none available
system.switch_cpus_1.iq.ISSUE:fu_full::IprAccess            0      0.00%    100.00% # attempts to use FU when none available
system.switch_cpus_1.iq.ISSUE:fu_full::InstPrefetch            0      0.00%    100.00% # attempts to use FU when none available
system.switch_cpus_1.iq.ISSUE:issued_per_cycle::samples      8480033                       # Number of insts issued each cycle
system.switch_cpus_1.iq.ISSUE:issued_per_cycle::mean     1.431674                       # Number of insts issued each cycle
system.switch_cpus_1.iq.ISSUE:issued_per_cycle::stdev     1.321362                       # Number of insts issued each cycle
system.switch_cpus_1.iq.ISSUE:issued_per_cycle::underflows            0      0.00%      0.00% # Number of insts issued each cycle
system.switch_cpus_1.iq.ISSUE:issued_per_cycle::0      2373438     27.99%     27.99% # Number of insts issued each cycle
system.switch_cpus_1.iq.ISSUE:issued_per_cycle::1      2556100     30.14%     58.13% # Number of insts issued each cycle
system.switch_cpus_1.iq.ISSUE:issued_per_cycle::2      2314096     27.29%     85.42% # Number of insts issued each cycle
system.switch_cpus_1.iq.ISSUE:issued_per_cycle::3       200148      2.36%     87.78% # Number of insts issued each cycle
system.switch_cpus_1.iq.ISSUE:issued_per_cycle::4       865596     10.21%     97.99% # Number of insts issued each cycle
system.switch_cpus_1.iq.ISSUE:issued_per_cycle::5       137588      1.62%     99.61% # Number of insts issued each cycle
system.switch_cpus_1.iq.ISSUE:issued_per_cycle::6        26285      0.31%     99.92% # Number of insts issued each cycle
system.switch_cpus_1.iq.ISSUE:issued_per_cycle::7         6387      0.08%    100.00% # Number of insts issued each cycle
system.switch_cpus_1.iq.ISSUE:issued_per_cycle::8          395      0.00%    100.00% # Number of insts issued each cycle
system.switch_cpus_1.iq.ISSUE:issued_per_cycle::overflows            0      0.00%    100.00% # Number of insts issued each cycle
system.switch_cpus_1.iq.ISSUE:issued_per_cycle::min_value            0                       # Number of insts issued each cycle
system.switch_cpus_1.iq.ISSUE:issued_per_cycle::max_value            8                       # Number of insts issued each cycle
system.switch_cpus_1.iq.ISSUE:issued_per_cycle::total      8480033                       # Number of insts issued each cycle
system.switch_cpus_1.iq.ISSUE:rate           1.428566                       # Inst issue rate
system.switch_cpus_1.iq.iqInstsAdded         12644520                       # Number of instructions added to the IQ (excludes non-spec)
system.switch_cpus_1.iq.iqInstsIssued        12140639                       # Number of instructions issued
system.switch_cpus_1.iq.iqSquashedInstsExamined      2365158                       # Number of squashed instructions iterated over during squash; mainly for profiling
system.switch_cpus_1.iq.iqSquashedInstsIssued         2504                       # Number of squashed instructions issued
system.switch_cpus_1.iq.iqSquashedOperandsExamined       923853                       # Number of squashed operands that are examined and possibly removed from graph
system.switch_cpus_1.itb.data_accesses              0                       # DTB accesses
system.switch_cpus_1.itb.data_acv                   0                       # DTB access violations
system.switch_cpus_1.itb.data_hits                  0                       # DTB hits
system.switch_cpus_1.itb.data_misses                0                       # DTB misses
system.switch_cpus_1.itb.fetch_accesses       2280104                       # ITB accesses
system.switch_cpus_1.itb.fetch_acv                  0                       # ITB acv
system.switch_cpus_1.itb.fetch_hits           2280103                       # ITB hits
system.switch_cpus_1.itb.fetch_misses               1                       # ITB misses
system.switch_cpus_1.itb.read_accesses              0                       # DTB read accesses
system.switch_cpus_1.itb.read_acv                   0                       # DTB read access violations
system.switch_cpus_1.itb.read_hits                  0                       # DTB read hits
system.switch_cpus_1.itb.read_misses                0                       # DTB read misses
system.switch_cpus_1.itb.write_accesses             0                       # DTB write accesses
system.switch_cpus_1.itb.write_acv                  0                       # DTB write access violations
system.switch_cpus_1.itb.write_hits                 0                       # DTB write hits
system.switch_cpus_1.itb.write_misses               0                       # DTB write misses
system.switch_cpus_1.memDep0.conflictingLoads       616079                       # Number of conflicting loads.
system.switch_cpus_1.memDep0.conflictingStores       430142                       # Number of conflicting stores.
system.switch_cpus_1.memDep0.insertedLoads      2067680                       # Number of loads inserted to the mem dependence unit.
system.switch_cpus_1.memDep0.insertedStores      1712107                       # Number of stores inserted to the mem dependence unit.
system.switch_cpus_1.numCycles                8498480                       # number of cpu cycles simulated
system.switch_cpus_1.rename.RENAME:BlockCycles        71638                       # Number of cycles rename is blocking
system.switch_cpus_1.rename.RENAME:CommittedMaps      6978824                       # Number of HB maps that are committed
system.switch_cpus_1.rename.RENAME:IQFullEvents          283                       # Number of times rename has blocked due to IQ full
system.switch_cpus_1.rename.RENAME:IdleCycles      4637441                       # Number of cycles rename is idle
system.switch_cpus_1.rename.RENAME:LSQFullEvents        31751                       # Number of times rename has blocked due to LSQ full
system.switch_cpus_1.rename.RENAME:ROBFullEvents         3093                       # Number of times rename has blocked due to ROB full
system.switch_cpus_1.rename.RENAME:RenameLookups     19185159                       # Number of register rename lookups that rename has made
system.switch_cpus_1.rename.RENAME:RenamedInsts     14436573                       # Number of instructions processed by rename
system.switch_cpus_1.rename.RENAME:RenamedOperands      9462233                       # Number of destination operands rename has renamed
system.switch_cpus_1.rename.RENAME:RunCycles      3220825                       # Number of cycles rename is running
system.switch_cpus_1.rename.RENAME:SquashCycles       515050                       # Number of cycles rename is squashing
system.switch_cpus_1.rename.RENAME:UnblockCycles        35078                       # Number of cycles rename is unblocking
system.switch_cpus_1.rename.RENAME:UndoneMaps      2483395                       # Number of HB maps that are undone due to squashing
system.switch_cpus_1.rename.RENAME:serializeStallCycles            0                       # count of cycles rename stalled for serializing inst
system.switch_cpus_1.rename.RENAME:serializingInsts            0                       # count of serializing insts renamed
system.switch_cpus_1.rename.RENAME:skidInsts        65398                       # count of insts added to the skid buffer
system.switch_cpus_1.rename.RENAME:tempSerializingInsts            0                       # count of temporary serializing insts renamed
system.switch_cpus_1.timesIdled                   947                       # Number of times that the entire CPU went into an idle state and unscheduled itself

---------- End Simulation Statistics   ----------
