
---------- Begin Simulation Statistics ----------
host_inst_rate                                 181164                       # Simulator instruction rate (inst/s)
host_mem_usage                                 321952                       # Number of bytes of host memory used
host_seconds                                   110.40                       # Real time elapsed on the host
host_tick_rate                             2002371188                       # Simulator tick rate (ticks/s)
sim_freq                                 1000000000000                       # Frequency of simulated ticks
sim_insts                                    20000003                       # Number of instructions simulated
sim_seconds                                  0.221059                       # Number of seconds simulated
sim_ticks                                221059096000                       # Number of ticks simulated
system.cpu.dcache.ReadReq_accesses            5609422                       # number of ReadReq accesses(hits+misses)
system.cpu.dcache.ReadReq_avg_miss_latency 76525.681663                       # average ReadReq miss latency
system.cpu.dcache.ReadReq_avg_mshr_miss_latency 73314.341895                       # average ReadReq mshr miss latency
system.cpu.dcache.ReadReq_hits                2084183                       # number of ReadReq hits
system.cpu.dcache.ReadReq_miss_latency   269771317500                       # number of ReadReq miss cycles
system.cpu.dcache.ReadReq_miss_rate          0.628450                       # miss rate for ReadReq accesses
system.cpu.dcache.ReadReq_misses              3525239                       # number of ReadReq misses
system.cpu.dcache.ReadReq_mshr_hits              4205                       # number of ReadReq MSHR hits
system.cpu.dcache.ReadReq_mshr_miss_latency 258142290500                       # number of ReadReq MSHR miss cycles
system.cpu.dcache.ReadReq_mshr_miss_rate     0.627700                       # mshr miss rate for ReadReq accesses
system.cpu.dcache.ReadReq_mshr_misses         3521034                       # number of ReadReq MSHR misses
system.cpu.dcache.WriteReq_accesses            293301                       # number of WriteReq accesses(hits+misses)
system.cpu.dcache.WriteReq_avg_miss_latency 72593.312922                       # average WriteReq miss latency
system.cpu.dcache.WriteReq_avg_mshr_miss_latency 71035.252716                       # average WriteReq mshr miss latency
system.cpu.dcache.WriteReq_hits                285446                       # number of WriteReq hits
system.cpu.dcache.WriteReq_miss_latency     570220473                       # number of WriteReq miss cycles
system.cpu.dcache.WriteReq_miss_rate         0.026781                       # miss rate for WriteReq accesses
system.cpu.dcache.WriteReq_misses                7855                       # number of WriteReq misses
system.cpu.dcache.WriteReq_mshr_hits             2976                       # number of WriteReq MSHR hits
system.cpu.dcache.WriteReq_mshr_miss_latency    346580998                       # number of WriteReq MSHR miss cycles
system.cpu.dcache.WriteReq_mshr_miss_rate     0.016635                       # mshr miss rate for WriteReq accesses
system.cpu.dcache.WriteReq_mshr_misses           4879                       # number of WriteReq MSHR misses
system.cpu.dcache.avg_blocked_cycles::no_mshrs        14818                       # average number of cycles each access was blocked
system.cpu.dcache.avg_blocked_cycles::no_targets 57652.847122                       # average number of cycles each access was blocked
system.cpu.dcache.avg_refs                   0.672580                       # Average number of references to valid blocks.
system.cpu.dcache.blocked::no_mshrs                11                       # number of cycles access was blocked
system.cpu.dcache.blocked::no_targets             556                       # number of cycles access was blocked
system.cpu.dcache.blocked_cycles::no_mshrs       162998                       # number of cycles access was blocked
system.cpu.dcache.blocked_cycles::no_targets     32054983                       # number of cycles access was blocked
system.cpu.dcache.cache_copies                      0                       # number of cache copies performed
system.cpu.dcache.demand_accesses             5902723                       # number of demand (read+write) accesses
system.cpu.dcache.demand_avg_miss_latency 76516.938970                       # average overall miss latency
system.cpu.dcache.demand_avg_mshr_miss_latency 73311.188194                       # average overall mshr miss latency
system.cpu.dcache.demand_hits                 2369629                       # number of demand (read+write) hits
system.cpu.dcache.demand_miss_latency    270341537973                       # number of demand (read+write) miss cycles
system.cpu.dcache.demand_miss_rate           0.598553                       # miss rate for demand accesses
system.cpu.dcache.demand_misses               3533094                       # number of demand (read+write) misses
system.cpu.dcache.demand_mshr_hits               7181                       # number of demand (read+write) MSHR hits
system.cpu.dcache.demand_mshr_miss_latency 258488871498                       # number of demand (read+write) MSHR miss cycles
system.cpu.dcache.demand_mshr_miss_rate      0.597337                       # mshr miss rate for demand accesses
system.cpu.dcache.demand_mshr_misses          3525913                       # number of demand (read+write) MSHR misses
system.cpu.dcache.fast_writes                       0                       # number of fast writes performed
system.cpu.dcache.mshr_cap_events                   0                       # number of times MSHR cap was activated
system.cpu.dcache.no_allocate_misses                0                       # Number of misses that were no-allocate
system.cpu.dcache.occ_%::0                   0.606433                       # Average percentage of cache occupancy
system.cpu.dcache.occ_blocks::0            620.987862                       # Average occupied blocks per context
system.cpu.dcache.overall_accesses            5902723                       # number of overall (read+write) accesses
system.cpu.dcache.overall_avg_miss_latency 76516.938970                       # average overall miss latency
system.cpu.dcache.overall_avg_mshr_miss_latency 73311.188194                       # average overall mshr miss latency
system.cpu.dcache.overall_avg_mshr_uncacheable_latency     no_value                       # average overall mshr uncacheable latency
system.cpu.dcache.overall_hits                2369629                       # number of overall hits
system.cpu.dcache.overall_miss_latency   270341537973                       # number of overall miss cycles
system.cpu.dcache.overall_miss_rate          0.598553                       # miss rate for overall accesses
system.cpu.dcache.overall_misses              3533094                       # number of overall misses
system.cpu.dcache.overall_mshr_hits              7181                       # number of overall MSHR hits
system.cpu.dcache.overall_mshr_miss_latency 258488871498                       # number of overall MSHR miss cycles
system.cpu.dcache.overall_mshr_miss_rate     0.597337                       # mshr miss rate for overall accesses
system.cpu.dcache.overall_mshr_misses         3525913                       # number of overall MSHR misses
system.cpu.dcache.overall_mshr_uncacheable_latency            0                       # number of overall MSHR uncacheable cycles
system.cpu.dcache.overall_mshr_uncacheable_misses            0                       # number of overall MSHR uncacheable misses
system.cpu.dcache.prefetch_accuracy          no_value                       # ratio of good prefetches to total prefetches
system.cpu.dcache.prefetch_hits                     0                       # number of prefetched blocks that were accessed
system.cpu.dcache.replacements                3524202                       # number of replacements
system.cpu.dcache.sampled_refs                3525053                       # Sample count of references to valid blocks.
system.cpu.dcache.soft_prefetch_mshr_full            0                       # number of mshr full events for SW prefetching instrutions
system.cpu.dcache.tagsinuse                620.987862                       # Cycle average of tags in use
system.cpu.dcache.total_refs                  2370879                       # Total number of references to valid blocks.
system.cpu.dcache.warmup_cycle                      0                       # Cycle when the warmup percentage was hit.
system.cpu.dcache.writebacks                     4506                       # number of writebacks
system.cpu.dtb.data_accesses                        0                       # DTB accesses
system.cpu.dtb.data_acv                             0                       # DTB access violations
system.cpu.dtb.data_hits                            0                       # DTB hits
system.cpu.dtb.data_misses                          0                       # DTB misses
system.cpu.dtb.fetch_accesses                       0                       # ITB accesses
system.cpu.dtb.fetch_acv                            0                       # ITB acv
system.cpu.dtb.fetch_hits                           0                       # ITB hits
system.cpu.dtb.fetch_misses                         0                       # ITB misses
system.cpu.dtb.read_accesses                        0                       # DTB read accesses
system.cpu.dtb.read_acv                             0                       # DTB read access violations
system.cpu.dtb.read_hits                            0                       # DTB read hits
system.cpu.dtb.read_misses                          0                       # DTB read misses
system.cpu.dtb.write_accesses                       0                       # DTB write accesses
system.cpu.dtb.write_acv                            0                       # DTB write access violations
system.cpu.dtb.write_hits                           0                       # DTB write hits
system.cpu.dtb.write_misses                         0                       # DTB write misses
system.cpu.icache.ReadReq_accesses           13508111                       # number of ReadReq accesses(hits+misses)
system.cpu.icache.ReadReq_avg_miss_latency 46419.943071                       # average ReadReq miss latency
system.cpu.icache.ReadReq_avg_mshr_miss_latency 43393.901258                       # average ReadReq mshr miss latency
system.cpu.icache.ReadReq_hits               13502490                       # number of ReadReq hits
system.cpu.icache.ReadReq_miss_latency      260926500                       # number of ReadReq miss cycles
system.cpu.icache.ReadReq_miss_rate          0.000416                       # miss rate for ReadReq accesses
system.cpu.icache.ReadReq_misses                 5621                       # number of ReadReq misses
system.cpu.icache.ReadReq_mshr_hits               455                       # number of ReadReq MSHR hits
system.cpu.icache.ReadReq_mshr_miss_latency    224129500                       # number of ReadReq MSHR miss cycles
system.cpu.icache.ReadReq_mshr_miss_rate     0.000382                       # mshr miss rate for ReadReq accesses
system.cpu.icache.ReadReq_mshr_misses            5165                       # number of ReadReq MSHR misses
system.cpu.icache.avg_blocked_cycles::no_mshrs     no_value                       # average number of cycles each access was blocked
system.cpu.icache.avg_blocked_cycles::no_targets     no_value                       # average number of cycles each access was blocked
system.cpu.icache.avg_refs                2613.722416                       # Average number of references to valid blocks.
system.cpu.icache.blocked::no_mshrs                 0                       # number of cycles access was blocked
system.cpu.icache.blocked::no_targets               0                       # number of cycles access was blocked
system.cpu.icache.blocked_cycles::no_mshrs            0                       # number of cycles access was blocked
system.cpu.icache.blocked_cycles::no_targets            0                       # number of cycles access was blocked
system.cpu.icache.cache_copies                      0                       # number of cache copies performed
system.cpu.icache.demand_accesses            13508111                       # number of demand (read+write) accesses
system.cpu.icache.demand_avg_miss_latency 46419.943071                       # average overall miss latency
system.cpu.icache.demand_avg_mshr_miss_latency 43393.901258                       # average overall mshr miss latency
system.cpu.icache.demand_hits                13502490                       # number of demand (read+write) hits
system.cpu.icache.demand_miss_latency       260926500                       # number of demand (read+write) miss cycles
system.cpu.icache.demand_miss_rate           0.000416                       # miss rate for demand accesses
system.cpu.icache.demand_misses                  5621                       # number of demand (read+write) misses
system.cpu.icache.demand_mshr_hits                455                       # number of demand (read+write) MSHR hits
system.cpu.icache.demand_mshr_miss_latency    224129500                       # number of demand (read+write) MSHR miss cycles
system.cpu.icache.demand_mshr_miss_rate      0.000382                       # mshr miss rate for demand accesses
system.cpu.icache.demand_mshr_misses             5165                       # number of demand (read+write) MSHR misses
system.cpu.icache.fast_writes                       0                       # number of fast writes performed
system.cpu.icache.mshr_cap_events                   0                       # number of times MSHR cap was activated
system.cpu.icache.no_allocate_misses                0                       # Number of misses that were no-allocate
system.cpu.icache.occ_%::0                   0.363598                       # Average percentage of cache occupancy
system.cpu.icache.occ_blocks::0            186.162227                       # Average occupied blocks per context
system.cpu.icache.overall_accesses           13508111                       # number of overall (read+write) accesses
system.cpu.icache.overall_avg_miss_latency 46419.943071                       # average overall miss latency
system.cpu.icache.overall_avg_mshr_miss_latency 43393.901258                       # average overall mshr miss latency
system.cpu.icache.overall_avg_mshr_uncacheable_latency     no_value                       # average overall mshr uncacheable latency
system.cpu.icache.overall_hits               13502490                       # number of overall hits
system.cpu.icache.overall_miss_latency      260926500                       # number of overall miss cycles
system.cpu.icache.overall_miss_rate          0.000416                       # miss rate for overall accesses
system.cpu.icache.overall_misses                 5621                       # number of overall misses
system.cpu.icache.overall_mshr_hits               455                       # number of overall MSHR hits
system.cpu.icache.overall_mshr_miss_latency    224129500                       # number of overall MSHR miss cycles
system.cpu.icache.overall_mshr_miss_rate     0.000382                       # mshr miss rate for overall accesses
system.cpu.icache.overall_mshr_misses            5165                       # number of overall MSHR misses
system.cpu.icache.overall_mshr_uncacheable_latency            0                       # number of overall MSHR uncacheable cycles
system.cpu.icache.overall_mshr_uncacheable_misses            0                       # number of overall MSHR uncacheable misses
system.cpu.icache.prefetch_accuracy          no_value                       # ratio of good prefetches to total prefetches
system.cpu.icache.prefetch_hits                     0                       # number of prefetched blocks that were accessed
system.cpu.icache.replacements                   4957                       # number of replacements
system.cpu.icache.sampled_refs                   5166                       # Sample count of references to valid blocks.
system.cpu.icache.soft_prefetch_mshr_full            0                       # number of mshr full events for SW prefetching instrutions
system.cpu.icache.tagsinuse                186.162227                       # Cycle average of tags in use
system.cpu.icache.total_refs                 13502490                       # Total number of references to valid blocks.
system.cpu.icache.warmup_cycle                      0                       # Cycle when the warmup percentage was hit.
system.cpu.icache.writebacks                        0                       # number of writebacks
system.cpu.idle_fraction                            0                       # Percentage of idle cycles
system.cpu.itb.data_accesses                        0                       # DTB accesses
system.cpu.itb.data_acv                             0                       # DTB access violations
system.cpu.itb.data_hits                            0                       # DTB hits
system.cpu.itb.data_misses                          0                       # DTB misses
system.cpu.itb.fetch_accesses                       2                       # ITB accesses
system.cpu.itb.fetch_acv                            0                       # ITB acv
system.cpu.itb.fetch_hits                           2                       # ITB hits
system.cpu.itb.fetch_misses                         0                       # ITB misses
system.cpu.itb.read_accesses                        0                       # DTB read accesses
system.cpu.itb.read_acv                             0                       # DTB read access violations
system.cpu.itb.read_hits                            0                       # DTB read hits
system.cpu.itb.read_misses                          0                       # DTB read misses
system.cpu.itb.write_accesses                       0                       # DTB write accesses
system.cpu.itb.write_acv                            0                       # DTB write access violations
system.cpu.itb.write_hits                           0                       # DTB write hits
system.cpu.itb.write_misses                         0                       # DTB write misses
system.cpu.not_idle_fraction                        1                       # Percentage of non-idle cycles
system.cpu.numCycles                                2                       # number of cpu cycles simulated
system.cpu.num_insts                                2                       # Number of instructions executed
system.cpu.num_refs                                 0                       # Number of memory references
system.cpu.workload.PROG:num_syscalls               3                       # Number of system calls
system.l2.HardPFReq_avg_mshr_miss_latency 44795.232292                       # average HardPFReq mshr miss latency
system.l2.HardPFReq_mshr_miss_latency     82333547363                       # number of HardPFReq MSHR miss cycles
system.l2.HardPFReq_mshr_miss_rate                inf                       # mshr miss rate for HardPFReq accesses
system.l2.HardPFReq_mshr_misses               1837998                       # number of HardPFReq MSHR misses
system.l2.ReadExReq_accesses                     4020                       # number of ReadExReq accesses(hits+misses)
system.l2.ReadExReq_avg_miss_latency     68982.574060                       # average ReadExReq miss latency
system.l2.ReadExReq_avg_mshr_miss_latency 53366.069206                       # average ReadExReq mshr miss latency
system.l2.ReadExReq_hits                            3                       # number of ReadExReq hits
system.l2.ReadExReq_miss_latency            277103000                       # number of ReadExReq miss cycles
system.l2.ReadExReq_miss_rate                0.999254                       # miss rate for ReadExReq accesses
system.l2.ReadExReq_misses                       4017                       # number of ReadExReq misses
system.l2.ReadExReq_mshr_miss_latency       214371500                       # number of ReadExReq MSHR miss cycles
system.l2.ReadExReq_mshr_miss_rate           0.999254                       # mshr miss rate for ReadExReq accesses
system.l2.ReadExReq_mshr_misses                  4017                       # number of ReadExReq MSHR misses
system.l2.ReadReq_accesses                    3526200                       # number of ReadReq accesses(hits+misses)
system.l2.ReadReq_avg_miss_latency       71995.246963                       # average ReadReq miss latency
system.l2.ReadReq_avg_mshr_miss_latency  56462.126832                       # average ReadReq mshr miss latency
system.l2.ReadReq_hits                           2558                       # number of ReadReq hits
system.l2.ReadReq_miss_latency           253685476000                       # number of ReadReq miss cycles
system.l2.ReadReq_miss_rate                  0.999275                       # miss rate for ReadReq accesses
system.l2.ReadReq_misses                      3523642                       # number of ReadReq misses
system.l2.ReadReq_mshr_hits                      1464                       # number of ReadReq MSHR hits
system.l2.ReadReq_mshr_miss_latency      198869604500                       # number of ReadReq MSHR miss cycles
system.l2.ReadReq_mshr_miss_rate             0.998859                       # mshr miss rate for ReadReq accesses
system.l2.ReadReq_mshr_misses                 3522177                       # number of ReadReq MSHR misses
system.l2.UpgradeReq_accesses                     941                       # number of UpgradeReq accesses(hits+misses)
system.l2.UpgradeReq_avg_miss_latency    63859.192349                       # average UpgradeReq miss latency
system.l2.UpgradeReq_avg_mshr_miss_latency 48537.194474                       # average UpgradeReq mshr miss latency
system.l2.UpgradeReq_miss_latency            60091500                       # number of UpgradeReq miss cycles
system.l2.UpgradeReq_miss_rate                      1                       # miss rate for UpgradeReq accesses
system.l2.UpgradeReq_misses                       941                       # number of UpgradeReq misses
system.l2.UpgradeReq_mshr_miss_latency       45673500                       # number of UpgradeReq MSHR miss cycles
system.l2.UpgradeReq_mshr_miss_rate                 1                       # mshr miss rate for UpgradeReq accesses
system.l2.UpgradeReq_mshr_misses                  941                       # number of UpgradeReq MSHR misses
system.l2.Writeback_accesses                     4506                       # number of Writeback accesses(hits+misses)
system.l2.Writeback_hits                         4506                       # number of Writeback hits
system.l2.avg_blocked_cycles::no_mshrs       no_value                       # average number of cycles each access was blocked
system.l2.avg_blocked_cycles::no_targets     no_value                       # average number of cycles each access was blocked
system.l2.avg_refs                           0.000646                       # Average number of references to valid blocks.
system.l2.blocked::no_mshrs                         0                       # number of cycles access was blocked
system.l2.blocked::no_targets                       0                       # number of cycles access was blocked
system.l2.blocked_cycles::no_mshrs                  0                       # number of cycles access was blocked
system.l2.blocked_cycles::no_targets                0                       # number of cycles access was blocked
system.l2.cache_copies                              0                       # number of cache copies performed
system.l2.demand_accesses                     3530220                       # number of demand (read+write) accesses
system.l2.demand_avg_miss_latency        71991.816386                       # average overall miss latency
system.l2.demand_avg_mshr_miss_latency   56458.599839                       # average overall mshr miss latency
system.l2.demand_hits                            2561                       # number of demand (read+write) hits
system.l2.demand_miss_latency            253962579000                       # number of demand (read+write) miss cycles
system.l2.demand_miss_rate                   0.999275                       # miss rate for demand accesses
system.l2.demand_misses                       3527659                       # number of demand (read+write) misses
system.l2.demand_mshr_hits                       1464                       # number of demand (read+write) MSHR hits
system.l2.demand_mshr_miss_latency       199083976000                       # number of demand (read+write) MSHR miss cycles
system.l2.demand_mshr_miss_rate              0.998860                       # mshr miss rate for demand accesses
system.l2.demand_mshr_misses                  3526194                       # number of demand (read+write) MSHR misses
system.l2.fast_writes                               0                       # number of fast writes performed
system.l2.mshr_cap_events                           0                       # number of times MSHR cap was activated
system.l2.no_allocate_misses                        0                       # Number of misses that were no-allocate
system.l2.occ_%::0                           0.425164                       # Average percentage of cache occupancy
system.l2.occ_%::1                           0.000495                       # Average percentage of cache occupancy
system.l2.occ_blocks::0                   6965.884109                       # Average occupied blocks per context
system.l2.occ_blocks::1                      8.114764                       # Average occupied blocks per context
system.l2.overall_accesses                    3530220                       # number of overall (read+write) accesses
system.l2.overall_avg_miss_latency       71991.816386                       # average overall miss latency
system.l2.overall_avg_mshr_miss_latency  52462.239115                       # average overall mshr miss latency
system.l2.overall_avg_mshr_uncacheable_latency     no_value                       # average overall mshr uncacheable latency
system.l2.overall_hits                           2561                       # number of overall hits
system.l2.overall_miss_latency           253962579000                       # number of overall miss cycles
system.l2.overall_miss_rate                  0.999275                       # miss rate for overall accesses
system.l2.overall_misses                      3527659                       # number of overall misses
system.l2.overall_mshr_hits                      1464                       # number of overall MSHR hits
system.l2.overall_mshr_miss_latency      281417523363                       # number of overall MSHR miss cycles
system.l2.overall_mshr_miss_rate             1.519506                       # mshr miss rate for overall accesses
system.l2.overall_mshr_misses                 5364192                       # number of overall MSHR misses
system.l2.overall_mshr_uncacheable_latency            0                       # number of overall MSHR uncacheable cycles
system.l2.overall_mshr_uncacheable_misses            0                       # number of overall MSHR uncacheable misses
system.l2.prefetch_accuracy                  0.000345                       # ratio of good prefetches to total prefetches
system.l2.prefetch_hits                           634                       # number of prefetched blocks that were accessed
system.l2.prefetcher.num_hwpf_already_in_prefetcher       724582                       # number of hwpf that were already in the prefetch queue
system.l2.prefetcher.num_hwpf_evicted               0                       # number of hwpf removed due to no buffer left
system.l2.prefetcher.num_hwpf_identified      2566422                       # number of hwpf identified
system.l2.prefetcher.num_hwpf_issued          1837998                       # number of hwpf issued
system.l2.prefetcher.num_hwpf_removed_MSHR_hit         3842                       # number of hwpf removed because MSHR allocated
system.l2.prefetcher.num_hwpf_span_page             0                       # number of hwpf spanning a virtual page
system.l2.prefetcher.num_hwpf_squashed_from_miss            0                       # number of hwpf that got squashed due to a miss aborting calculation time
system.l2.replacements                        5356642                       # number of replacements
system.l2.sampled_refs                        5363732                       # Sample count of references to valid blocks.
system.l2.soft_prefetch_mshr_full                   0                       # number of mshr full events for SW prefetching instrutions
system.l2.tagsinuse                       6973.998873                       # Cycle average of tags in use
system.l2.total_refs                             3464                       # Total number of references to valid blocks.
system.l2.warmup_cycle                              0                       # Cycle when the warmup percentage was hit.
system.l2.writebacks                             4480                       # number of writebacks
system.switch_cpus.dtb.data_accesses          2832022                       # DTB accesses
system.switch_cpus.dtb.data_acv                     0                       # DTB access violations
system.switch_cpus.dtb.data_hits              2558233                       # DTB hits
system.switch_cpus.dtb.data_misses             273789                       # DTB misses
system.switch_cpus.dtb.fetch_accesses               0                       # ITB accesses
system.switch_cpus.dtb.fetch_acv                    0                       # ITB acv
system.switch_cpus.dtb.fetch_hits                   0                       # ITB hits
system.switch_cpus.dtb.fetch_misses                 0                       # ITB misses
system.switch_cpus.dtb.read_accesses          2682476                       # DTB read accesses
system.switch_cpus.dtb.read_acv                     0                       # DTB read access violations
system.switch_cpus.dtb.read_hits              2409028                       # DTB read hits
system.switch_cpus.dtb.read_misses             273448                       # DTB read misses
system.switch_cpus.dtb.write_accesses          149546                       # DTB write accesses
system.switch_cpus.dtb.write_acv                    0                       # DTB write access violations
system.switch_cpus.dtb.write_hits              149205                       # DTB write hits
system.switch_cpus.dtb.write_misses               341                       # DTB write misses
system.switch_cpus.idle_fraction                    1                       # Percentage of idle cycles
system.switch_cpus.itb.data_accesses                0                       # DTB accesses
system.switch_cpus.itb.data_acv                     0                       # DTB access violations
system.switch_cpus.itb.data_hits                    0                       # DTB hits
system.switch_cpus.itb.data_misses                  0                       # DTB misses
system.switch_cpus.itb.fetch_accesses        10273803                       # ITB accesses
system.switch_cpus.itb.fetch_acv                    0                       # ITB acv
system.switch_cpus.itb.fetch_hits            10273790                       # ITB hits
system.switch_cpus.itb.fetch_misses                13                       # ITB misses
system.switch_cpus.itb.read_accesses                0                       # DTB read accesses
system.switch_cpus.itb.read_acv                     0                       # DTB read access violations
system.switch_cpus.itb.read_hits                    0                       # DTB read hits
system.switch_cpus.itb.read_misses                  0                       # DTB read misses
system.switch_cpus.itb.write_accesses               0                       # DTB write accesses
system.switch_cpus.itb.write_acv                    0                       # DTB write access violations
system.switch_cpus.itb.write_hits                   0                       # DTB write hits
system.switch_cpus.itb.write_misses                 0                       # DTB write misses
system.switch_cpus.not_idle_fraction                0                       # Percentage of non-idle cycles
system.switch_cpus.numCycles                251672342                       # number of cpu cycles simulated
system.switch_cpus.num_insts                 10000001                       # Number of instructions executed
system.switch_cpus.num_refs                   2837031                       # Number of memory references
system.switch_cpus_1.BPredUnit.BTBCorrect            0                       # Number of correct BTB predictions (this stat may not work properly.
system.switch_cpus_1.BPredUnit.BTBHits        4252902                       # Number of BTB hits
system.switch_cpus_1.BPredUnit.BTBLookups      4443538                       # Number of BTB lookups
system.switch_cpus_1.BPredUnit.RASInCorrect           28                       # Number of incorrect RAS predictions.
system.switch_cpus_1.BPredUnit.condIncorrect        20545                       # Number of conditional branches incorrect
system.switch_cpus_1.BPredUnit.condPredicted      5241601                       # Number of conditional branches predicted
system.switch_cpus_1.BPredUnit.lookups        5386381                       # Number of BP lookups
system.switch_cpus_1.BPredUnit.usedRAS          53980                       # Number of times the RAS was used to get a target.
system.switch_cpus_1.commit.COM:branches      1639812                       # Number of branches committed
system.switch_cpus_1.commit.COM:bw_lim_events        50495                       # number cycles where commit BW limit reached
system.switch_cpus_1.commit.COM:bw_limited            0                       # number of insts not committed due to BW limits
system.switch_cpus_1.commit.COM:committed_per_cycle::samples     51493140                       # Number of insts commited each cycle
system.switch_cpus_1.commit.COM:committed_per_cycle::mean     0.200294                       # Number of insts commited each cycle
system.switch_cpus_1.commit.COM:committed_per_cycle::stdev     0.638598                       # Number of insts commited each cycle
system.switch_cpus_1.commit.COM:committed_per_cycle::underflows            0      0.00%      0.00% # Number of insts commited each cycle
system.switch_cpus_1.commit.COM:committed_per_cycle::0     44774876     86.95%     86.95% # Number of insts commited each cycle
system.switch_cpus_1.commit.COM:committed_per_cycle::1      4285402      8.32%     95.28% # Number of insts commited each cycle
system.switch_cpus_1.commit.COM:committed_per_cycle::2      2006767      3.90%     99.17% # Number of insts commited each cycle
system.switch_cpus_1.commit.COM:committed_per_cycle::3       137422      0.27%     99.44% # Number of insts commited each cycle
system.switch_cpus_1.commit.COM:committed_per_cycle::4        91228      0.18%     99.62% # Number of insts commited each cycle
system.switch_cpus_1.commit.COM:committed_per_cycle::5        79305      0.15%     99.77% # Number of insts commited each cycle
system.switch_cpus_1.commit.COM:committed_per_cycle::6        36366      0.07%     99.84% # Number of insts commited each cycle
system.switch_cpus_1.commit.COM:committed_per_cycle::7        31279      0.06%     99.90% # Number of insts commited each cycle
system.switch_cpus_1.commit.COM:committed_per_cycle::8        50495      0.10%    100.00% # Number of insts commited each cycle
system.switch_cpus_1.commit.COM:committed_per_cycle::overflows            0      0.00%    100.00% # Number of insts commited each cycle
system.switch_cpus_1.commit.COM:committed_per_cycle::min_value            0                       # Number of insts commited each cycle
system.switch_cpus_1.commit.COM:committed_per_cycle::max_value            8                       # Number of insts commited each cycle
system.switch_cpus_1.commit.COM:committed_per_cycle::total     51493140                       # Number of insts commited each cycle
system.switch_cpus_1.commit.COM:count        10313748                       # Number of instructions committed
system.switch_cpus_1.commit.COM:loads         2510912                       # Number of loads committed
system.switch_cpus_1.commit.COM:membars             0                       # Number of memory barriers committed
system.switch_cpus_1.commit.COM:refs          2655008                       # Number of memory references committed
system.switch_cpus_1.commit.COM:swp_count            0                       # Number of s/w prefetches committed
system.switch_cpus_1.commit.branchMispredicts        20207                       # The number of times a branch was mispredicted
system.switch_cpus_1.commit.commitCommittedInsts     10313748                       # The number of committed instructions
system.switch_cpus_1.commit.commitNonSpecStalls            1                       # The number of times commit has been forced to stall to communicate backwards
system.switch_cpus_1.commit.commitSquashedInsts     21841816                       # The number of squashed insts skipped by commit
system.switch_cpus_1.committedInsts          10000000                       # Number of Instructions Simulated
system.switch_cpus_1.committedInsts_total     10000000                       # Number of Instructions Simulated
system.switch_cpus_1.cpi                    19.044585                       # CPI: Cycles Per Instruction
system.switch_cpus_1.cpi_total              19.044585                       # CPI: Total CPI of All Threads
system.switch_cpus_1.decode.DECODE:BlockedCycles     36723683                       # Number of cycles decode is blocked
system.switch_cpus_1.decode.DECODE:BranchMispred          344                       # Number of times decode detected a branch misprediction
system.switch_cpus_1.decode.DECODE:BranchResolved        88461                       # Number of times decode resolved a branch
system.switch_cpus_1.decode.DECODE:DecodedInsts     33935649                       # Number of instructions handled by decode
system.switch_cpus_1.decode.DECODE:IdleCycles      7682332                       # Number of cycles decode is idle
system.switch_cpus_1.decode.DECODE:RunCycles      6409723                       # Number of cycles decode is running
system.switch_cpus_1.decode.DECODE:SquashCycles      2935860                       # Number of cycles decode is squashing
system.switch_cpus_1.decode.DECODE:SquashedInsts         1355                       # Number of squashed instructions handled by decode
system.switch_cpus_1.decode.DECODE:UnblockCycles       677401                       # Number of cycles decode is unblocking
system.switch_cpus_1.dtb.data_accesses        3996657                       # DTB accesses
system.switch_cpus_1.dtb.data_acv                   0                       # DTB access violations
system.switch_cpus_1.dtb.data_hits            3405450                       # DTB hits
system.switch_cpus_1.dtb.data_misses           591207                       # DTB misses
system.switch_cpus_1.dtb.fetch_accesses             0                       # ITB accesses
system.switch_cpus_1.dtb.fetch_acv                  0                       # ITB acv
system.switch_cpus_1.dtb.fetch_hits                 0                       # ITB hits
system.switch_cpus_1.dtb.fetch_misses               0                       # ITB misses
system.switch_cpus_1.dtb.read_accesses        3828584                       # DTB read accesses
system.switch_cpus_1.dtb.read_acv                   0                       # DTB read access violations
system.switch_cpus_1.dtb.read_hits            3238010                       # DTB read hits
system.switch_cpus_1.dtb.read_misses           590574                       # DTB read misses
system.switch_cpus_1.dtb.write_accesses        168073                       # DTB write accesses
system.switch_cpus_1.dtb.write_acv                  0                       # DTB write access violations
system.switch_cpus_1.dtb.write_hits            167440                       # DTB write hits
system.switch_cpus_1.dtb.write_misses             633                       # DTB write misses
system.switch_cpus_1.fetch.Branches           5386381                       # Number of branches that fetch encountered
system.switch_cpus_1.fetch.CacheLines         3234319                       # Number of cache lines fetched
system.switch_cpus_1.fetch.Cycles            10609797                       # Number of cycles fetch has run and was not squashing or blocked
system.switch_cpus_1.fetch.IcacheSquashes         4332                       # Number of outstanding Icache misses that were squashed
system.switch_cpus_1.fetch.Insts             35324720                       # Number of instructions fetch has processed
system.switch_cpus_1.fetch.SquashCycles        315093                       # Number of cycles fetch has spent squashing
system.switch_cpus_1.fetch.branchRate        0.028283                       # Number of branch fetches per cycle
system.switch_cpus_1.fetch.icacheStallCycles      3234319                       # Number of cycles fetch is stalled on an Icache miss
system.switch_cpus_1.fetch.predictedBranches      4306882                       # Number of branches that fetch has predicted taken
system.switch_cpus_1.fetch.rate              0.185484                       # Number of inst fetches per cycle
system.switch_cpus_1.fetch.rateDist::samples     54429000                       # Number of instructions fetched each cycle (Total)
system.switch_cpus_1.fetch.rateDist::mean     0.649005                       # Number of instructions fetched each cycle (Total)
system.switch_cpus_1.fetch.rateDist::stdev     1.844698                       # Number of instructions fetched each cycle (Total)
system.switch_cpus_1.fetch.rateDist::underflows            0      0.00%      0.00% # Number of instructions fetched each cycle (Total)
system.switch_cpus_1.fetch.rateDist::0       47053580     86.45%     86.45% # Number of instructions fetched each cycle (Total)
system.switch_cpus_1.fetch.rateDist::1         936171      1.72%     88.17% # Number of instructions fetched each cycle (Total)
system.switch_cpus_1.fetch.rateDist::2          74621      0.14%     88.31% # Number of instructions fetched each cycle (Total)
system.switch_cpus_1.fetch.rateDist::3          62402      0.11%     88.42% # Number of instructions fetched each cycle (Total)
system.switch_cpus_1.fetch.rateDist::4        3998595      7.35%     95.77% # Number of instructions fetched each cycle (Total)
system.switch_cpus_1.fetch.rateDist::5          57035      0.10%     95.87% # Number of instructions fetched each cycle (Total)
system.switch_cpus_1.fetch.rateDist::6          82281      0.15%     96.02% # Number of instructions fetched each cycle (Total)
system.switch_cpus_1.fetch.rateDist::7          35660      0.07%     96.09% # Number of instructions fetched each cycle (Total)
system.switch_cpus_1.fetch.rateDist::8        2128655      3.91%    100.00% # Number of instructions fetched each cycle (Total)
system.switch_cpus_1.fetch.rateDist::overflows            0      0.00%    100.00% # Number of instructions fetched each cycle (Total)
system.switch_cpus_1.fetch.rateDist::min_value            0                       # Number of instructions fetched each cycle (Total)
system.switch_cpus_1.fetch.rateDist::max_value            8                       # Number of instructions fetched each cycle (Total)
system.switch_cpus_1.fetch.rateDist::total     54429000                       # Number of instructions fetched each cycle (Total)
system.switch_cpus_1.idleCycles             136016849                       # Total number of cycles that the CPU has spent unscheduled due to idling
system.switch_cpus_1.iew.EXEC:branches        2328108                       # Number of branches executed
system.switch_cpus_1.iew.EXEC:nop              363952                       # number of nop insts executed
system.switch_cpus_1.iew.EXEC:rate           0.074950                       # Inst execution rate
system.switch_cpus_1.iew.EXEC:refs            4003037                       # number of memory reference insts executed
system.switch_cpus_1.iew.EXEC:stores           168073                       # Number of stores executed
system.switch_cpus_1.iew.EXEC:swp                   0                       # number of swp insts executed
system.switch_cpus_1.iew.WB:consumers        12094097                       # num instructions consuming a value
system.switch_cpus_1.iew.WB:count            13660855                       # cumulative count of insts written-back
system.switch_cpus_1.iew.WB:fanout           0.655231                       # average fanout of values written-back
system.switch_cpus_1.iew.WB:penalized               0                       # number of instrctions required to write to 'other' IQ
system.switch_cpus_1.iew.WB:penalized_rate            0                       # fraction of instructions written-back that wrote to 'other' IQ
system.switch_cpus_1.iew.WB:producers         7924428                       # num instructions producing a value
system.switch_cpus_1.iew.WB:rate             0.071731                       # insts written-back per cycle
system.switch_cpus_1.iew.WB:sent             14252682                       # cumulative count of insts sent to commit
system.switch_cpus_1.iew.branchMispredicts        23041                       # Number of branch mispredicts detected at execute
system.switch_cpus_1.iew.iewBlockCycles      25911932                       # Number of cycles IEW is blocking
system.switch_cpus_1.iew.iewDispLoadInsts      8757822                       # Number of dispatched load instructions
system.switch_cpus_1.iew.iewDispNonSpecInsts            1                       # Number of dispatched non-speculative instructions
system.switch_cpus_1.iew.iewDispSquashedInsts        20099                       # Number of squashed instructions skipped by dispatch
system.switch_cpus_1.iew.iewDispStoreInsts       184921                       # Number of dispatched store instructions
system.switch_cpus_1.iew.iewDispatchedInsts     32626782                       # Number of instructions dispatched to IQ
system.switch_cpus_1.iew.iewExecLoadInsts      3834964                       # Number of load instructions executed
system.switch_cpus_1.iew.iewExecSquashedInsts        18717                       # Number of squashed instructions skipped in execute
system.switch_cpus_1.iew.iewExecutedInsts     14273886                       # Number of executed instructions
system.switch_cpus_1.iew.iewIQFullEvents       396766                       # Number of times the IQ has become full, causing a stall
system.switch_cpus_1.iew.iewIdleCycles              0                       # Number of cycles IEW is idle
system.switch_cpus_1.iew.iewLSQFullEvents          907                       # Number of times the LSQ has become full, causing a stall
system.switch_cpus_1.iew.iewSquashCycles      2935860                       # Number of cycles IEW is squashing
system.switch_cpus_1.iew.iewUnblockCycles      1085660                       # Number of cycles IEW is unblocking
system.switch_cpus_1.iew.lsq.thread.0.blockedLoads            0                       # Number of blocked loads due to partial load-store forwarding
system.switch_cpus_1.iew.lsq.thread.0.cacheBlocked         5109                       # Number of times an access to memory failed due to the cache being blocked
system.switch_cpus_1.iew.lsq.thread.0.forwLoads        33064                       # Number of loads that had data forwarded from stores
system.switch_cpus_1.iew.lsq.thread.0.ignoredResponses          225                       # Number of memory responses ignored because the instruction is squashed
system.switch_cpus_1.iew.lsq.thread.0.invAddrLoads            0                       # Number of loads ignored due to an invalid address
system.switch_cpus_1.iew.lsq.thread.0.invAddrSwpfs            0                       # Number of software prefetches ignored due to an invalid address
system.switch_cpus_1.iew.lsq.thread.0.memOrderViolation          587                       # Number of memory ordering violations
system.switch_cpus_1.iew.lsq.thread.0.rescheduledLoads            0                       # Number of loads that were rescheduled
system.switch_cpus_1.iew.lsq.thread.0.squashedLoads      6246889                       # Number of loads squashed
system.switch_cpus_1.iew.lsq.thread.0.squashedStores        40825                       # Number of stores squashed
system.switch_cpus_1.iew.memOrderViolationEvents          587                       # Number of memory order violations
system.switch_cpus_1.iew.predictedNotTakenIncorrect         7125                       # Number of branches that were predicted not taken incorrectly
system.switch_cpus_1.iew.predictedTakenIncorrect        15916                       # Number of branches that were predicted taken incorrectly
system.switch_cpus_1.ipc                     0.052508                       # IPC: Instructions Per Cycle
system.switch_cpus_1.ipc_total               0.052508                       # IPC: Total IPC of All Threads
system.switch_cpus_1.iq.ISSUE:FU_type_0::No_OpClass            0      0.00%      0.00% # Type of FU issued
system.switch_cpus_1.iq.ISSUE:FU_type_0::IntAlu     10276777     71.90%     71.90% # Type of FU issued
system.switch_cpus_1.iq.ISSUE:FU_type_0::IntMult         1084      0.01%     71.91% # Type of FU issued
system.switch_cpus_1.iq.ISSUE:FU_type_0::IntDiv            0      0.00%     71.91% # Type of FU issued
system.switch_cpus_1.iq.ISSUE:FU_type_0::FloatAdd         4241      0.03%     71.94% # Type of FU issued
system.switch_cpus_1.iq.ISSUE:FU_type_0::FloatCmp            0      0.00%     71.94% # Type of FU issued
system.switch_cpus_1.iq.ISSUE:FU_type_0::FloatCvt         1100      0.01%     71.95% # Type of FU issued
system.switch_cpus_1.iq.ISSUE:FU_type_0::FloatMult          220      0.00%     71.95% # Type of FU issued
system.switch_cpus_1.iq.ISSUE:FU_type_0::FloatDiv            0      0.00%     71.95% # Type of FU issued
system.switch_cpus_1.iq.ISSUE:FU_type_0::FloatSqrt            0      0.00%     71.95% # Type of FU issued
system.switch_cpus_1.iq.ISSUE:FU_type_0::MemRead      3839567     26.86%     98.81% # Type of FU issued
system.switch_cpus_1.iq.ISSUE:FU_type_0::MemWrite       169614      1.19%    100.00% # Type of FU issued
system.switch_cpus_1.iq.ISSUE:FU_type_0::IprAccess            0      0.00%    100.00% # Type of FU issued
system.switch_cpus_1.iq.ISSUE:FU_type_0::InstPrefetch            0      0.00%    100.00% # Type of FU issued
system.switch_cpus_1.iq.ISSUE:FU_type_0::total     14292603                       # Type of FU issued
system.switch_cpus_1.iq.ISSUE:fu_busy_cnt         8948                       # FU busy when requested
system.switch_cpus_1.iq.ISSUE:fu_busy_rate     0.000626                       # FU busy rate (busy events/executed inst)
system.switch_cpus_1.iq.ISSUE:fu_full::No_OpClass            0      0.00%      0.00% # attempts to use FU when none available
system.switch_cpus_1.iq.ISSUE:fu_full::IntAlu           68      0.76%      0.76% # attempts to use FU when none available
system.switch_cpus_1.iq.ISSUE:fu_full::IntMult            0      0.00%      0.76% # attempts to use FU when none available
system.switch_cpus_1.iq.ISSUE:fu_full::IntDiv            0      0.00%      0.76% # attempts to use FU when none available
system.switch_cpus_1.iq.ISSUE:fu_full::FloatAdd            0      0.00%      0.76% # attempts to use FU when none available
system.switch_cpus_1.iq.ISSUE:fu_full::FloatCmp            0      0.00%      0.76% # attempts to use FU when none available
system.switch_cpus_1.iq.ISSUE:fu_full::FloatCvt            0      0.00%      0.76% # attempts to use FU when none available
system.switch_cpus_1.iq.ISSUE:fu_full::FloatMult            0      0.00%      0.76% # attempts to use FU when none available
system.switch_cpus_1.iq.ISSUE:fu_full::FloatDiv            0      0.00%      0.76% # attempts to use FU when none available
system.switch_cpus_1.iq.ISSUE:fu_full::FloatSqrt            0      0.00%      0.76% # attempts to use FU when none available
system.switch_cpus_1.iq.ISSUE:fu_full::MemRead         5047     56.40%     57.16% # attempts to use FU when none available
system.switch_cpus_1.iq.ISSUE:fu_full::MemWrite         3833     42.84%    100.00% # attempts to use FU when none available
system.switch_cpus_1.iq.ISSUE:fu_full::IprAccess            0      0.00%    100.00% # attempts to use FU when none available
system.switch_cpus_1.iq.ISSUE:fu_full::InstPrefetch            0      0.00%    100.00% # attempts to use FU when none available
system.switch_cpus_1.iq.ISSUE:issued_per_cycle::samples     54429000                       # Number of insts issued each cycle
system.switch_cpus_1.iq.ISSUE:issued_per_cycle::mean     0.262592                       # Number of insts issued each cycle
system.switch_cpus_1.iq.ISSUE:issued_per_cycle::stdev     0.648771                       # Number of insts issued each cycle
system.switch_cpus_1.iq.ISSUE:issued_per_cycle::underflows            0      0.00%      0.00% # Number of insts issued each cycle
system.switch_cpus_1.iq.ISSUE:issued_per_cycle::0     44191481     81.19%     81.19% # Number of insts issued each cycle
system.switch_cpus_1.iq.ISSUE:issued_per_cycle::1      7770872     14.28%     95.47% # Number of insts issued each cycle
system.switch_cpus_1.iq.ISSUE:issued_per_cycle::2      1273109      2.34%     97.81% # Number of insts issued each cycle
system.switch_cpus_1.iq.ISSUE:issued_per_cycle::3       920126      1.69%     99.50% # Number of insts issued each cycle
system.switch_cpus_1.iq.ISSUE:issued_per_cycle::4       171953      0.32%     99.81% # Number of insts issued each cycle
system.switch_cpus_1.iq.ISSUE:issued_per_cycle::5        86203      0.16%     99.97% # Number of insts issued each cycle
system.switch_cpus_1.iq.ISSUE:issued_per_cycle::6        10706      0.02%     99.99% # Number of insts issued each cycle
system.switch_cpus_1.iq.ISSUE:issued_per_cycle::7         4328      0.01%    100.00% # Number of insts issued each cycle
system.switch_cpus_1.iq.ISSUE:issued_per_cycle::8          222      0.00%    100.00% # Number of insts issued each cycle
system.switch_cpus_1.iq.ISSUE:issued_per_cycle::overflows            0      0.00%    100.00% # Number of insts issued each cycle
system.switch_cpus_1.iq.ISSUE:issued_per_cycle::min_value            0                       # Number of insts issued each cycle
system.switch_cpus_1.iq.ISSUE:issued_per_cycle::max_value            8                       # Number of insts issued each cycle
system.switch_cpus_1.iq.ISSUE:issued_per_cycle::total     54429000                       # Number of insts issued each cycle
system.switch_cpus_1.iq.ISSUE:rate           0.075048                       # Inst issue rate
system.switch_cpus_1.iq.iqInstsAdded         32262829                       # Number of instructions added to the IQ (excludes non-spec)
system.switch_cpus_1.iq.iqInstsIssued        14292603                       # Number of instructions issued
system.switch_cpus_1.iq.iqNonSpecInstsAdded            1                       # Number of non-speculative instructions added to the IQ
system.switch_cpus_1.iq.iqSquashedInstsExamined     22243088                       # Number of squashed instructions iterated over during squash; mainly for profiling
system.switch_cpus_1.iq.iqSquashedInstsIssued          499                       # Number of squashed instructions issued
system.switch_cpus_1.iq.iqSquashedOperandsExamined     31593727                       # Number of squashed operands that are examined and possibly removed from graph
system.switch_cpus_1.itb.data_accesses              0                       # DTB accesses
system.switch_cpus_1.itb.data_acv                   0                       # DTB access violations
system.switch_cpus_1.itb.data_hits                  0                       # DTB hits
system.switch_cpus_1.itb.data_misses                0                       # DTB misses
system.switch_cpus_1.itb.fetch_accesses       3234377                       # ITB accesses
system.switch_cpus_1.itb.fetch_acv                  0                       # ITB acv
system.switch_cpus_1.itb.fetch_hits           3234319                       # ITB hits
system.switch_cpus_1.itb.fetch_misses              58                       # ITB misses
system.switch_cpus_1.itb.read_accesses              0                       # DTB read accesses
system.switch_cpus_1.itb.read_acv                   0                       # DTB read access violations
system.switch_cpus_1.itb.read_hits                  0                       # DTB read hits
system.switch_cpus_1.itb.read_misses                0                       # DTB read misses
system.switch_cpus_1.itb.write_accesses             0                       # DTB write accesses
system.switch_cpus_1.itb.write_acv                  0                       # DTB write access violations
system.switch_cpus_1.itb.write_hits                 0                       # DTB write hits
system.switch_cpus_1.itb.write_misses               0                       # DTB write misses
system.switch_cpus_1.memDep0.conflictingLoads        67501                       # Number of conflicting loads.
system.switch_cpus_1.memDep0.conflictingStores         2783                       # Number of conflicting stores.
system.switch_cpus_1.memDep0.insertedLoads      8757822                       # Number of loads inserted to the mem dependence unit.
system.switch_cpus_1.memDep0.insertedStores       184921                       # Number of stores inserted to the mem dependence unit.
system.switch_cpus_1.numCycles              190445849                       # number of cpu cycles simulated
system.switch_cpus_1.rename.RENAME:BlockCycles     32751317                       # Number of cycles rename is blocking
system.switch_cpus_1.rename.RENAME:CommittedMaps      8255878                       # Number of HB maps that are committed
system.switch_cpus_1.rename.RENAME:IQFullEvents      4173840                       # Number of times rename has blocked due to IQ full
system.switch_cpus_1.rename.RENAME:IdleCycles      8254836                       # Number of cycles rename is idle
system.switch_cpus_1.rename.RENAME:LSQFullEvents        25979                       # Number of times rename has blocked due to LSQ full
system.switch_cpus_1.rename.RENAME:ROBFullEvents          916                       # Number of times rename has blocked due to ROB full
system.switch_cpus_1.rename.RENAME:RenameLookups     53305550                       # Number of register rename lookups that rename has made
system.switch_cpus_1.rename.RENAME:RenamedInsts     33082596                       # Number of instructions processed by rename
system.switch_cpus_1.rename.RENAME:RenamedOperands     27534770                       # Number of destination operands rename has renamed
system.switch_cpus_1.rename.RENAME:RunCycles      6543759                       # Number of cycles rename is running
system.switch_cpus_1.rename.RENAME:SquashCycles      2935860                       # Number of cycles rename is squashing
system.switch_cpus_1.rename.RENAME:UnblockCycles      3943216                       # Number of cycles rename is unblocking
system.switch_cpus_1.rename.RENAME:UndoneMaps     19278825                       # Number of HB maps that are undone due to squashing
system.switch_cpus_1.rename.RENAME:serializeStallCycles           11                       # count of cycles rename stalled for serializing inst
system.switch_cpus_1.rename.RENAME:serializingInsts            1                       # count of serializing insts renamed
system.switch_cpus_1.rename.RENAME:skidInsts      7730844                       # count of insts added to the skid buffer
system.switch_cpus_1.rename.RENAME:tempSerializingInsts            1                       # count of temporary serializing insts renamed
system.switch_cpus_1.timesIdled               1811759                       # Number of times that the entire CPU went into an idle state and unscheduled itself

---------- End Simulation Statistics   ----------
