
---------- Begin Simulation Statistics ----------
host_inst_rate                                 593938                       # Simulator instruction rate (inst/s)
host_mem_usage                                 386468                       # Number of bytes of host memory used
host_seconds                                    33.67                       # Real time elapsed on the host
host_tick_rate                              542926819                       # Simulator tick rate (ticks/s)
sim_freq                                 1000000000000                       # Frequency of simulated ticks
sim_insts                                    20000003                       # Number of instructions simulated
sim_seconds                                  0.018283                       # Number of seconds simulated
sim_ticks                                 18283457500                       # Number of ticks simulated
system.cpu.dcache.ReadReq_accesses            3326499                       # number of ReadReq accesses(hits+misses)
system.cpu.dcache.ReadReq_avg_miss_latency 28198.792517                       # average ReadReq miss latency
system.cpu.dcache.ReadReq_avg_mshr_miss_latency 22782.185166                       # average ReadReq mshr miss latency
system.cpu.dcache.ReadReq_hits                3222481                       # number of ReadReq hits
system.cpu.dcache.ReadReq_miss_latency     2933182000                       # number of ReadReq miss cycles
system.cpu.dcache.ReadReq_miss_rate          0.031270                       # miss rate for ReadReq accesses
system.cpu.dcache.ReadReq_misses               104018                       # number of ReadReq misses
system.cpu.dcache.ReadReq_mshr_hits             19942                       # number of ReadReq MSHR hits
system.cpu.dcache.ReadReq_mshr_miss_latency   1915435000                       # number of ReadReq MSHR miss cycles
system.cpu.dcache.ReadReq_mshr_miss_rate     0.025275                       # mshr miss rate for ReadReq accesses
system.cpu.dcache.ReadReq_mshr_misses           84076                       # number of ReadReq MSHR misses
system.cpu.dcache.WriteReq_accesses           2822830                       # number of WriteReq accesses(hits+misses)
system.cpu.dcache.WriteReq_avg_miss_latency 53369.693186                       # average WriteReq miss latency
system.cpu.dcache.WriteReq_avg_mshr_miss_latency 57504.393191                       # average WriteReq mshr miss latency
system.cpu.dcache.WriteReq_hits               2817224                       # number of WriteReq hits
system.cpu.dcache.WriteReq_miss_latency     299190500                       # number of WriteReq miss cycles
system.cpu.dcache.WriteReq_miss_rate         0.001986                       # miss rate for WriteReq accesses
system.cpu.dcache.WriteReq_misses                5606                       # number of WriteReq misses
system.cpu.dcache.WriteReq_mshr_hits             1963                       # number of WriteReq MSHR hits
system.cpu.dcache.WriteReq_mshr_miss_latency    209431000                       # number of WriteReq MSHR miss cycles
system.cpu.dcache.WriteReq_mshr_miss_rate     0.001290                       # mshr miss rate for WriteReq accesses
system.cpu.dcache.WriteReq_mshr_misses           3642                       # number of WriteReq MSHR misses
system.cpu.dcache.avg_blocked_cycles::no_mshrs     no_value                       # average number of cycles each access was blocked
system.cpu.dcache.avg_blocked_cycles::no_targets 26599.816369                       # average number of cycles each access was blocked
system.cpu.dcache.avg_refs                  69.437193                       # Average number of references to valid blocks.
system.cpu.dcache.blocked::no_mshrs                 0                       # number of cycles access was blocked
system.cpu.dcache.blocked::no_targets            3812                       # number of cycles access was blocked
system.cpu.dcache.blocked_cycles::no_mshrs            0                       # number of cycles access was blocked
system.cpu.dcache.blocked_cycles::no_targets    101398500                       # number of cycles access was blocked
system.cpu.dcache.cache_copies                      0                       # number of cache copies performed
system.cpu.dcache.demand_accesses             6149329                       # number of demand (read+write) accesses
system.cpu.dcache.demand_avg_miss_latency 29485.993031                       # average overall miss latency
system.cpu.dcache.demand_avg_mshr_miss_latency 24223.830913                       # average overall mshr miss latency
system.cpu.dcache.demand_hits                 6039705                       # number of demand (read+write) hits
system.cpu.dcache.demand_miss_latency      3232372500                       # number of demand (read+write) miss cycles
system.cpu.dcache.demand_miss_rate           0.017827                       # miss rate for demand accesses
system.cpu.dcache.demand_misses                109624                       # number of demand (read+write) misses
system.cpu.dcache.demand_mshr_hits              21905                       # number of demand (read+write) MSHR hits
system.cpu.dcache.demand_mshr_miss_latency   2124866000                       # number of demand (read+write) MSHR miss cycles
system.cpu.dcache.demand_mshr_miss_rate      0.014265                       # mshr miss rate for demand accesses
system.cpu.dcache.demand_mshr_misses            87718                       # number of demand (read+write) MSHR misses
system.cpu.dcache.fast_writes                       0                       # number of fast writes performed
system.cpu.dcache.mshr_cap_events                   0                       # number of times MSHR cap was activated
system.cpu.dcache.no_allocate_misses                0                       # Number of misses that were no-allocate
system.cpu.dcache.occ_%::0                   0.980853                       # Average percentage of cache occupancy
system.cpu.dcache.occ_blocks::0           1004.393552                       # Average occupied blocks per context
system.cpu.dcache.overall_accesses            6149329                       # number of overall (read+write) accesses
system.cpu.dcache.overall_avg_miss_latency 29485.993031                       # average overall miss latency
system.cpu.dcache.overall_avg_mshr_miss_latency 24223.830913                       # average overall mshr miss latency
system.cpu.dcache.overall_avg_mshr_uncacheable_latency     no_value                       # average overall mshr uncacheable latency
system.cpu.dcache.overall_hits                6039705                       # number of overall hits
system.cpu.dcache.overall_miss_latency     3232372500                       # number of overall miss cycles
system.cpu.dcache.overall_miss_rate          0.017827                       # miss rate for overall accesses
system.cpu.dcache.overall_misses               109624                       # number of overall misses
system.cpu.dcache.overall_mshr_hits             21905                       # number of overall MSHR hits
system.cpu.dcache.overall_mshr_miss_latency   2124866000                       # number of overall MSHR miss cycles
system.cpu.dcache.overall_mshr_miss_rate     0.014265                       # mshr miss rate for overall accesses
system.cpu.dcache.overall_mshr_misses           87718                       # number of overall MSHR misses
system.cpu.dcache.overall_mshr_uncacheable_latency            0                       # number of overall MSHR uncacheable cycles
system.cpu.dcache.overall_mshr_uncacheable_misses            0                       # number of overall MSHR uncacheable misses
system.cpu.dcache.prefetch_accuracy          no_value                       # ratio of good prefetches to total prefetches
system.cpu.dcache.prefetch_hits                     0                       # number of prefetched blocks that were accessed
system.cpu.dcache.replacements                  85972                       # number of replacements
system.cpu.dcache.sampled_refs                  86996                       # Sample count of references to valid blocks.
system.cpu.dcache.soft_prefetch_mshr_full            0                       # number of mshr full events for SW prefetching instrutions
system.cpu.dcache.tagsinuse               1004.393552                       # Cycle average of tags in use
system.cpu.dcache.total_refs                  6040758                       # Total number of references to valid blocks.
system.cpu.dcache.warmup_cycle           502144855000                       # Cycle when the warmup percentage was hit.
system.cpu.dcache.writebacks                     3599                       # number of writebacks
system.cpu.dtb.data_accesses                        1                       # DTB accesses
system.cpu.dtb.data_acv                             0                       # DTB access violations
system.cpu.dtb.data_hits                            1                       # DTB hits
system.cpu.dtb.data_misses                          0                       # DTB misses
system.cpu.dtb.fetch_accesses                       0                       # ITB accesses
system.cpu.dtb.fetch_acv                            0                       # ITB acv
system.cpu.dtb.fetch_hits                           0                       # ITB hits
system.cpu.dtb.fetch_misses                         0                       # ITB misses
system.cpu.dtb.read_accesses                        0                       # DTB read accesses
system.cpu.dtb.read_acv                             0                       # DTB read access violations
system.cpu.dtb.read_hits                            0                       # DTB read hits
system.cpu.dtb.read_misses                          0                       # DTB read misses
system.cpu.dtb.write_accesses                       1                       # DTB write accesses
system.cpu.dtb.write_acv                            0                       # DTB write access violations
system.cpu.dtb.write_hits                           1                       # DTB write hits
system.cpu.dtb.write_misses                         0                       # DTB write misses
system.cpu.icache.ReadReq_accesses           12282693                       # number of ReadReq accesses(hits+misses)
system.cpu.icache.ReadReq_avg_miss_latency 47961.538462                       # average ReadReq miss latency
system.cpu.icache.ReadReq_avg_mshr_miss_latency 56812.500000                       # average ReadReq mshr miss latency
system.cpu.icache.ReadReq_hits               12282680                       # number of ReadReq hits
system.cpu.icache.ReadReq_miss_latency         623500                       # number of ReadReq miss cycles
system.cpu.icache.ReadReq_miss_rate          0.000001                       # miss rate for ReadReq accesses
system.cpu.icache.ReadReq_misses                   13                       # number of ReadReq misses
system.cpu.icache.ReadReq_mshr_hits                 4                       # number of ReadReq MSHR hits
system.cpu.icache.ReadReq_mshr_miss_latency       454500                       # number of ReadReq MSHR miss cycles
system.cpu.icache.ReadReq_mshr_miss_rate     0.000001                       # mshr miss rate for ReadReq accesses
system.cpu.icache.ReadReq_mshr_misses               8                       # number of ReadReq MSHR misses
system.cpu.icache.avg_blocked_cycles::no_mshrs     no_value                       # average number of cycles each access was blocked
system.cpu.icache.avg_blocked_cycles::no_targets        22000                       # average number of cycles each access was blocked
system.cpu.icache.avg_refs               1364742.222222                       # Average number of references to valid blocks.
system.cpu.icache.blocked::no_mshrs                 0                       # number of cycles access was blocked
system.cpu.icache.blocked::no_targets               1                       # number of cycles access was blocked
system.cpu.icache.blocked_cycles::no_mshrs            0                       # number of cycles access was blocked
system.cpu.icache.blocked_cycles::no_targets        22000                       # number of cycles access was blocked
system.cpu.icache.cache_copies                      0                       # number of cache copies performed
system.cpu.icache.demand_accesses            12282693                       # number of demand (read+write) accesses
system.cpu.icache.demand_avg_miss_latency 47961.538462                       # average overall miss latency
system.cpu.icache.demand_avg_mshr_miss_latency 56812.500000                       # average overall mshr miss latency
system.cpu.icache.demand_hits                12282680                       # number of demand (read+write) hits
system.cpu.icache.demand_miss_latency          623500                       # number of demand (read+write) miss cycles
system.cpu.icache.demand_miss_rate           0.000001                       # miss rate for demand accesses
system.cpu.icache.demand_misses                    13                       # number of demand (read+write) misses
system.cpu.icache.demand_mshr_hits                  4                       # number of demand (read+write) MSHR hits
system.cpu.icache.demand_mshr_miss_latency       454500                       # number of demand (read+write) MSHR miss cycles
system.cpu.icache.demand_mshr_miss_rate      0.000001                       # mshr miss rate for demand accesses
system.cpu.icache.demand_mshr_misses                8                       # number of demand (read+write) MSHR misses
system.cpu.icache.fast_writes                       0                       # number of fast writes performed
system.cpu.icache.mshr_cap_events                   0                       # number of times MSHR cap was activated
system.cpu.icache.no_allocate_misses                0                       # Number of misses that were no-allocate
system.cpu.icache.occ_%::0                   0.012969                       # Average percentage of cache occupancy
system.cpu.icache.occ_blocks::0              6.640247                       # Average occupied blocks per context
system.cpu.icache.overall_accesses           12282693                       # number of overall (read+write) accesses
system.cpu.icache.overall_avg_miss_latency 47961.538462                       # average overall miss latency
system.cpu.icache.overall_avg_mshr_miss_latency 56812.500000                       # average overall mshr miss latency
system.cpu.icache.overall_avg_mshr_uncacheable_latency     no_value                       # average overall mshr uncacheable latency
system.cpu.icache.overall_hits               12282680                       # number of overall hits
system.cpu.icache.overall_miss_latency         623500                       # number of overall miss cycles
system.cpu.icache.overall_miss_rate          0.000001                       # miss rate for overall accesses
system.cpu.icache.overall_misses                   13                       # number of overall misses
system.cpu.icache.overall_mshr_hits                 4                       # number of overall MSHR hits
system.cpu.icache.overall_mshr_miss_latency       454500                       # number of overall MSHR miss cycles
system.cpu.icache.overall_mshr_miss_rate     0.000001                       # mshr miss rate for overall accesses
system.cpu.icache.overall_mshr_misses               8                       # number of overall MSHR misses
system.cpu.icache.overall_mshr_uncacheable_latency            0                       # number of overall MSHR uncacheable cycles
system.cpu.icache.overall_mshr_uncacheable_misses            0                       # number of overall MSHR uncacheable misses
system.cpu.icache.prefetch_accuracy          no_value                       # ratio of good prefetches to total prefetches
system.cpu.icache.prefetch_hits                     0                       # number of prefetched blocks that were accessed
system.cpu.icache.replacements                      0                       # number of replacements
system.cpu.icache.sampled_refs                      9                       # Sample count of references to valid blocks.
system.cpu.icache.soft_prefetch_mshr_full            0                       # number of mshr full events for SW prefetching instrutions
system.cpu.icache.tagsinuse                  6.640247                       # Cycle average of tags in use
system.cpu.icache.total_refs                 12282680                       # Total number of references to valid blocks.
system.cpu.icache.warmup_cycle                      0                       # Cycle when the warmup percentage was hit.
system.cpu.icache.writebacks                        0                       # number of writebacks
system.cpu.idle_fraction                            0                       # Percentage of idle cycles
system.cpu.itb.data_accesses                        0                       # DTB accesses
system.cpu.itb.data_acv                             0                       # DTB access violations
system.cpu.itb.data_hits                            0                       # DTB hits
system.cpu.itb.data_misses                          0                       # DTB misses
system.cpu.itb.fetch_accesses                       2                       # ITB accesses
system.cpu.itb.fetch_acv                            0                       # ITB acv
system.cpu.itb.fetch_hits                           2                       # ITB hits
system.cpu.itb.fetch_misses                         0                       # ITB misses
system.cpu.itb.read_accesses                        0                       # DTB read accesses
system.cpu.itb.read_acv                             0                       # DTB read access violations
system.cpu.itb.read_hits                            0                       # DTB read hits
system.cpu.itb.read_misses                          0                       # DTB read misses
system.cpu.itb.write_accesses                       0                       # DTB write accesses
system.cpu.itb.write_acv                            0                       # DTB write access violations
system.cpu.itb.write_hits                           0                       # DTB write hits
system.cpu.itb.write_misses                         0                       # DTB write misses
system.cpu.not_idle_fraction                        1                       # Percentage of non-idle cycles
system.cpu.numCycles                                2                       # number of cpu cycles simulated
system.cpu.num_insts                                2                       # Number of instructions executed
system.cpu.num_refs                                 1                       # Number of memory references
system.cpu.workload.PROG:num_syscalls               0                       # Number of system calls
system.l2.HardPFReq_avg_mshr_miss_latency 34896.199726                       # average HardPFReq mshr miss latency
system.l2.HardPFReq_mshr_miss_latency       127545610                       # number of HardPFReq MSHR miss cycles
system.l2.HardPFReq_mshr_miss_rate                inf                       # mshr miss rate for HardPFReq accesses
system.l2.HardPFReq_mshr_misses                  3655                       # number of HardPFReq MSHR misses
system.l2.ReadExReq_accesses                     2920                       # number of ReadExReq accesses(hits+misses)
system.l2.ReadExReq_avg_miss_latency     56407.705479                       # average ReadExReq miss latency
system.l2.ReadExReq_avg_mshr_miss_latency 40456.320658                       # average ReadExReq mshr miss latency
system.l2.ReadExReq_miss_latency            164710500                       # number of ReadExReq miss cycles
system.l2.ReadExReq_miss_rate                       1                       # miss rate for ReadExReq accesses
system.l2.ReadExReq_misses                       2920                       # number of ReadExReq misses
system.l2.ReadExReq_mshr_miss_latency       118092000                       # number of ReadExReq MSHR miss cycles
system.l2.ReadExReq_mshr_miss_rate           0.999658                       # mshr miss rate for ReadExReq accesses
system.l2.ReadExReq_mshr_misses                  2919                       # number of ReadExReq MSHR misses
system.l2.ReadReq_accesses                      84085                       # number of ReadReq accesses(hits+misses)
system.l2.ReadReq_avg_miss_latency       57542.908429                       # average ReadReq miss latency
system.l2.ReadReq_avg_mshr_miss_latency  41697.397550                       # average ReadReq mshr miss latency
system.l2.ReadReq_hits                          63751                       # number of ReadReq hits
system.l2.ReadReq_miss_latency             1170077500                       # number of ReadReq miss cycles
system.l2.ReadReq_miss_rate                  0.241827                       # miss rate for ReadReq accesses
system.l2.ReadReq_misses                        20334                       # number of ReadReq misses
system.l2.ReadReq_mshr_hits                         6                       # number of ReadReq MSHR hits
system.l2.ReadReq_mshr_miss_latency         847583000                       # number of ReadReq MSHR miss cycles
system.l2.ReadReq_mshr_miss_rate             0.241743                       # mshr miss rate for ReadReq accesses
system.l2.ReadReq_mshr_misses                   20327                       # number of ReadReq MSHR misses
system.l2.UpgradeReq_accesses                     723                       # number of UpgradeReq accesses(hits+misses)
system.l2.UpgradeReq_avg_miss_latency    56641.770401                       # average UpgradeReq miss latency
system.l2.UpgradeReq_avg_mshr_miss_latency 40694.329184                       # average UpgradeReq mshr miss latency
system.l2.UpgradeReq_miss_latency            40952000                       # number of UpgradeReq miss cycles
system.l2.UpgradeReq_miss_rate                      1                       # miss rate for UpgradeReq accesses
system.l2.UpgradeReq_misses                       723                       # number of UpgradeReq misses
system.l2.UpgradeReq_mshr_miss_latency       29422000                       # number of UpgradeReq MSHR miss cycles
system.l2.UpgradeReq_mshr_miss_rate                 1                       # mshr miss rate for UpgradeReq accesses
system.l2.UpgradeReq_mshr_misses                  723                       # number of UpgradeReq MSHR misses
system.l2.Writeback_accesses                     3599                       # number of Writeback accesses(hits+misses)
system.l2.Writeback_hits                         3599                       # number of Writeback hits
system.l2.avg_blocked_cycles::no_mshrs       no_value                       # average number of cycles each access was blocked
system.l2.avg_blocked_cycles::no_targets     no_value                       # average number of cycles each access was blocked
system.l2.avg_refs                           2.784823                       # Average number of references to valid blocks.
system.l2.blocked::no_mshrs                         0                       # number of cycles access was blocked
system.l2.blocked::no_targets                       0                       # number of cycles access was blocked
system.l2.blocked_cycles::no_mshrs                  0                       # number of cycles access was blocked
system.l2.blocked_cycles::no_targets                0                       # number of cycles access was blocked
system.l2.cache_copies                              0                       # number of cache copies performed
system.l2.demand_accesses                       87005                       # number of demand (read+write) accesses
system.l2.demand_avg_miss_latency        57400.361228                       # average overall miss latency
system.l2.demand_avg_mshr_miss_latency   41541.555536                       # average overall mshr miss latency
system.l2.demand_hits                           63751                       # number of demand (read+write) hits
system.l2.demand_miss_latency              1334788000                       # number of demand (read+write) miss cycles
system.l2.demand_miss_rate                   0.267272                       # miss rate for demand accesses
system.l2.demand_misses                         23254                       # number of demand (read+write) misses
system.l2.demand_mshr_hits                          6                       # number of demand (read+write) MSHR hits
system.l2.demand_mshr_miss_latency          965675000                       # number of demand (read+write) MSHR miss cycles
system.l2.demand_mshr_miss_rate              0.267180                       # mshr miss rate for demand accesses
system.l2.demand_mshr_misses                    23246                       # number of demand (read+write) MSHR misses
system.l2.fast_writes                               0                       # number of fast writes performed
system.l2.mshr_cap_events                           0                       # number of times MSHR cap was activated
system.l2.no_allocate_misses                        0                       # Number of misses that were no-allocate
system.l2.occ_%::0                           0.590473                       # Average percentage of cache occupancy
system.l2.occ_%::1                           0.000406                       # Average percentage of cache occupancy
system.l2.occ_blocks::0                   9674.308743                       # Average occupied blocks per context
system.l2.occ_blocks::1                      6.648412                       # Average occupied blocks per context
system.l2.overall_accesses                      87005                       # number of overall (read+write) accesses
system.l2.overall_avg_miss_latency       57400.361228                       # average overall miss latency
system.l2.overall_avg_mshr_miss_latency  40638.660645                       # average overall mshr miss latency
system.l2.overall_avg_mshr_uncacheable_latency     no_value                       # average overall mshr uncacheable latency
system.l2.overall_hits                          63751                       # number of overall hits
system.l2.overall_miss_latency             1334788000                       # number of overall miss cycles
system.l2.overall_miss_rate                  0.267272                       # miss rate for overall accesses
system.l2.overall_misses                        23254                       # number of overall misses
system.l2.overall_mshr_hits                         6                       # number of overall MSHR hits
system.l2.overall_mshr_miss_latency        1093220610                       # number of overall MSHR miss cycles
system.l2.overall_mshr_miss_rate             0.309189                       # mshr miss rate for overall accesses
system.l2.overall_mshr_misses                   26901                       # number of overall MSHR misses
system.l2.overall_mshr_uncacheable_latency            0                       # number of overall MSHR uncacheable cycles
system.l2.overall_mshr_uncacheable_misses            0                       # number of overall MSHR uncacheable misses
system.l2.prefetch_accuracy                  0.943639                       # ratio of good prefetches to total prefetches
system.l2.prefetch_hits                          3449                       # number of prefetched blocks that were accessed
system.l2.prefetcher.num_hwpf_already_in_prefetcher           21                       # number of hwpf that were already in the prefetch queue
system.l2.prefetcher.num_hwpf_evicted               0                       # number of hwpf removed due to no buffer left
system.l2.prefetcher.num_hwpf_identified         3680                       # number of hwpf identified
system.l2.prefetcher.num_hwpf_issued             3655                       # number of hwpf issued
system.l2.prefetcher.num_hwpf_removed_MSHR_hit            4                       # number of hwpf removed because MSHR allocated
system.l2.prefetcher.num_hwpf_span_page             0                       # number of hwpf spanning a virtual page
system.l2.prefetcher.num_hwpf_squashed_from_miss            0                       # number of hwpf that got squashed due to a miss aborting calculation time
system.l2.replacements                           9067                       # number of replacements
system.l2.sampled_refs                          23971                       # Sample count of references to valid blocks.
system.l2.soft_prefetch_mshr_full                   0                       # number of mshr full events for SW prefetching instrutions
system.l2.tagsinuse                       9680.957155                       # Cycle average of tags in use
system.l2.total_refs                            66755                       # Total number of references to valid blocks.
system.l2.warmup_cycle                              0                       # Cycle when the warmup percentage was hit.
system.l2.writebacks                             1281                       # number of writebacks
system.switch_cpus.dtb.data_accesses          2972120                       # DTB accesses
system.switch_cpus.dtb.data_acv                     0                       # DTB access violations
system.switch_cpus.dtb.data_hits              2969257                       # DTB hits
system.switch_cpus.dtb.data_misses               2863                       # DTB misses
system.switch_cpus.dtb.fetch_accesses               0                       # ITB accesses
system.switch_cpus.dtb.fetch_acv                    0                       # ITB acv
system.switch_cpus.dtb.fetch_hits                   0                       # ITB hits
system.switch_cpus.dtb.fetch_misses                 0                       # ITB misses
system.switch_cpus.dtb.read_accesses          1546660                       # DTB read accesses
system.switch_cpus.dtb.read_acv                     0                       # DTB read access violations
system.switch_cpus.dtb.read_hits              1543848                       # DTB read hits
system.switch_cpus.dtb.read_misses               2812                       # DTB read misses
system.switch_cpus.dtb.write_accesses         1425460                       # DTB write accesses
system.switch_cpus.dtb.write_acv                    0                       # DTB write access violations
system.switch_cpus.dtb.write_hits             1425409                       # DTB write hits
system.switch_cpus.dtb.write_misses                51                       # DTB write misses
system.switch_cpus.idle_fraction                    1                       # Percentage of idle cycles
system.switch_cpus.itb.data_accesses                0                       # DTB accesses
system.switch_cpus.itb.data_acv                     0                       # DTB access violations
system.switch_cpus.itb.data_hits                    0                       # DTB hits
system.switch_cpus.itb.data_misses                  0                       # DTB misses
system.switch_cpus.itb.fetch_accesses        10002866                       # ITB accesses
system.switch_cpus.itb.fetch_acv                    0                       # ITB acv
system.switch_cpus.itb.fetch_hits            10002865                       # ITB hits
system.switch_cpus.itb.fetch_misses                 1                       # ITB misses
system.switch_cpus.itb.read_accesses                0                       # DTB read accesses
system.switch_cpus.itb.read_acv                     0                       # DTB read access violations
system.switch_cpus.itb.read_hits                    0                       # DTB read hits
system.switch_cpus.itb.read_misses                  0                       # DTB read misses
system.switch_cpus.itb.write_accesses               0                       # DTB write accesses
system.switch_cpus.itb.write_acv                    0                       # DTB write access violations
system.switch_cpus.itb.write_hits                   0                       # DTB write hits
system.switch_cpus.itb.write_misses                 0                       # DTB write misses
system.switch_cpus.not_idle_fraction                0                       # Percentage of non-idle cycles
system.switch_cpus.numCycles                 28064018                       # number of cpu cycles simulated
system.switch_cpus.num_insts                 10000001                       # Number of instructions executed
system.switch_cpus.num_refs                   2972120                       # Number of memory references
system.switch_cpus_1.BPredUnit.BTBCorrect            0                       # Number of correct BTB predictions (this stat may not work properly.
system.switch_cpus_1.BPredUnit.BTBHits        2083985                       # Number of BTB hits
system.switch_cpus_1.BPredUnit.BTBLookups      2145548                       # Number of BTB lookups
system.switch_cpus_1.BPredUnit.RASInCorrect            0                       # Number of incorrect RAS predictions.
system.switch_cpus_1.BPredUnit.condIncorrect       159007                       # Number of conditional branches incorrect
system.switch_cpus_1.BPredUnit.condPredicted      2190032                       # Number of conditional branches predicted
system.switch_cpus_1.BPredUnit.lookups        2349170                       # Number of BP lookups
system.switch_cpus_1.BPredUnit.usedRAS              0                       # Number of times the RAS was used to get a target.
system.switch_cpus_1.commit.COM:branches      1623752                       # Number of branches committed
system.switch_cpus_1.commit.COM:bw_lim_events        95238                       # number cycles where commit BW limit reached
system.switch_cpus_1.commit.COM:bw_limited            0                       # number of insts not committed due to BW limits
system.switch_cpus_1.commit.COM:committed_per_cycle::samples      7969461                       # Number of insts commited each cycle
system.switch_cpus_1.commit.COM:committed_per_cycle::mean     1.304794                       # Number of insts commited each cycle
system.switch_cpus_1.commit.COM:committed_per_cycle::stdev     1.770759                       # Number of insts commited each cycle
system.switch_cpus_1.commit.COM:committed_per_cycle::underflows            0      0.00%      0.00% # Number of insts commited each cycle
system.switch_cpus_1.commit.COM:committed_per_cycle::0      3399178     42.65%     42.65% # Number of insts commited each cycle
system.switch_cpus_1.commit.COM:committed_per_cycle::1      2837869     35.61%     78.26% # Number of insts commited each cycle
system.switch_cpus_1.commit.COM:committed_per_cycle::2       166011      2.08%     80.34% # Number of insts commited each cycle
system.switch_cpus_1.commit.COM:committed_per_cycle::3        74471      0.93%     81.28% # Number of insts commited each cycle
system.switch_cpus_1.commit.COM:committed_per_cycle::4       753443      9.45%     90.73% # Number of insts commited each cycle
system.switch_cpus_1.commit.COM:committed_per_cycle::5       633533      7.95%     98.68% # Number of insts commited each cycle
system.switch_cpus_1.commit.COM:committed_per_cycle::6         6163      0.08%     98.76% # Number of insts commited each cycle
system.switch_cpus_1.commit.COM:committed_per_cycle::7         3555      0.04%     98.80% # Number of insts commited each cycle
system.switch_cpus_1.commit.COM:committed_per_cycle::8        95238      1.20%    100.00% # Number of insts commited each cycle
system.switch_cpus_1.commit.COM:committed_per_cycle::overflows            0      0.00%    100.00% # Number of insts commited each cycle
system.switch_cpus_1.commit.COM:committed_per_cycle::min_value            0                       # Number of insts commited each cycle
system.switch_cpus_1.commit.COM:committed_per_cycle::max_value            8                       # Number of insts commited each cycle
system.switch_cpus_1.commit.COM:committed_per_cycle::total      7969461                       # Number of insts commited each cycle
system.switch_cpus_1.commit.COM:count        10398508                       # Number of instructions committed
system.switch_cpus_1.commit.COM:loads         1606582                       # Number of loads committed
system.switch_cpus_1.commit.COM:membars             0                       # Number of memory barriers committed
system.switch_cpus_1.commit.COM:refs          3004003                       # Number of memory references committed
system.switch_cpus_1.commit.COM:swp_count            0                       # Number of s/w prefetches committed
system.switch_cpus_1.commit.branchMispredicts       159002                       # The number of times a branch was mispredicted
system.switch_cpus_1.commit.commitCommittedInsts     10398508                       # The number of committed instructions
system.switch_cpus_1.commit.commitSquashedInsts      3028141                       # The number of squashed insts skipped by commit
system.switch_cpus_1.committedInsts          10000000                       # Number of Instructions Simulated
system.switch_cpus_1.committedInsts_total     10000000                       # Number of Instructions Simulated
system.switch_cpus_1.cpi                     0.850290                       # CPI: Cycles Per Instruction
system.switch_cpus_1.cpi_total               0.850290                       # CPI: Total CPI of All Threads
system.switch_cpus_1.decode.DECODE:BlockedCycles       104644                       # Number of cycles decode is blocked
system.switch_cpus_1.decode.DECODE:BranchMispred           93                       # Number of times decode detected a branch misprediction
system.switch_cpus_1.decode.DECODE:BranchResolved       153718                       # Number of times decode resolved a branch
system.switch_cpus_1.decode.DECODE:DecodedInsts     14645848                       # Number of instructions handled by decode
system.switch_cpus_1.decode.DECODE:IdleCycles      4583014                       # Number of cycles decode is idle
system.switch_cpus_1.decode.DECODE:RunCycles      3277248                       # Number of cycles decode is running
system.switch_cpus_1.decode.DECODE:SquashCycles       514914                       # Number of cycles decode is squashing
system.switch_cpus_1.decode.DECODE:SquashedInsts           16                       # Number of squashed instructions handled by decode
system.switch_cpus_1.decode.DECODE:UnblockCycles         4554                       # Number of cycles decode is unblocking
system.switch_cpus_1.dtb.data_accesses        3585264                       # DTB accesses
system.switch_cpus_1.dtb.data_acv                   0                       # DTB access violations
system.switch_cpus_1.dtb.data_hits            3578609                       # DTB hits
system.switch_cpus_1.dtb.data_misses             6655                       # DTB misses
system.switch_cpus_1.dtb.fetch_accesses             0                       # ITB accesses
system.switch_cpus_1.dtb.fetch_acv                  0                       # ITB acv
system.switch_cpus_1.dtb.fetch_hits                 0                       # ITB hits
system.switch_cpus_1.dtb.fetch_misses               0                       # ITB misses
system.switch_cpus_1.dtb.read_accesses        1948650                       # DTB read accesses
system.switch_cpus_1.dtb.read_acv                   0                       # DTB read access violations
system.switch_cpus_1.dtb.read_hits            1942254                       # DTB read hits
system.switch_cpus_1.dtb.read_misses             6396                       # DTB read misses
system.switch_cpus_1.dtb.write_accesses       1636614                       # DTB write accesses
system.switch_cpus_1.dtb.write_acv                  0                       # DTB write access violations
system.switch_cpus_1.dtb.write_hits           1636355                       # DTB write hits
system.switch_cpus_1.dtb.write_misses             259                       # DTB write misses
system.switch_cpus_1.fetch.Branches           2349170                       # Number of branches that fetch encountered
system.switch_cpus_1.fetch.CacheLines         2279826                       # Number of cache lines fetched
system.switch_cpus_1.fetch.Cycles             5614628                       # Number of cycles fetch has run and was not squashing or blocked
system.switch_cpus_1.fetch.IcacheSquashes        42305                       # Number of outstanding Icache misses that were squashed
system.switch_cpus_1.fetch.Insts             14942834                       # Number of instructions fetch has processed
system.switch_cpus_1.fetch.SquashCycles        187433                       # Number of cycles fetch has spent squashing
system.switch_cpus_1.fetch.branchRate        0.276279                       # Number of branch fetches per cycle
system.switch_cpus_1.fetch.icacheStallCycles      2279826                       # Number of cycles fetch is stalled on an Icache miss
system.switch_cpus_1.fetch.predictedBranches      2083985                       # Number of branches that fetch has predicted taken
system.switch_cpus_1.fetch.rate              1.757382                       # Number of inst fetches per cycle
system.switch_cpus_1.fetch.rateDist::samples      8484375                       # Number of instructions fetched each cycle (Total)
system.switch_cpus_1.fetch.rateDist::mean     1.761218                       # Number of instructions fetched each cycle (Total)
system.switch_cpus_1.fetch.rateDist::stdev     2.702592                       # Number of instructions fetched each cycle (Total)
system.switch_cpus_1.fetch.rateDist::underflows            0      0.00%      0.00% # Number of instructions fetched each cycle (Total)
system.switch_cpus_1.fetch.rateDist::0        5149573     60.69%     60.69% # Number of instructions fetched each cycle (Total)
system.switch_cpus_1.fetch.rateDist::1         792447      9.34%     70.03% # Number of instructions fetched each cycle (Total)
system.switch_cpus_1.fetch.rateDist::2         187716      2.21%     72.25% # Number of instructions fetched each cycle (Total)
system.switch_cpus_1.fetch.rateDist::3          53827      0.63%     72.88% # Number of instructions fetched each cycle (Total)
system.switch_cpus_1.fetch.rateDist::4         584166      6.89%     79.77% # Number of instructions fetched each cycle (Total)
system.switch_cpus_1.fetch.rateDist::5         638347      7.52%     87.29% # Number of instructions fetched each cycle (Total)
system.switch_cpus_1.fetch.rateDist::6          31504      0.37%     87.66% # Number of instructions fetched each cycle (Total)
system.switch_cpus_1.fetch.rateDist::7         478309      5.64%     93.30% # Number of instructions fetched each cycle (Total)
system.switch_cpus_1.fetch.rateDist::8         568486      6.70%    100.00% # Number of instructions fetched each cycle (Total)
system.switch_cpus_1.fetch.rateDist::overflows            0      0.00%    100.00% # Number of instructions fetched each cycle (Total)
system.switch_cpus_1.fetch.rateDist::min_value            0                       # Number of instructions fetched each cycle (Total)
system.switch_cpus_1.fetch.rateDist::max_value            8                       # Number of instructions fetched each cycle (Total)
system.switch_cpus_1.fetch.rateDist::total      8484375                       # Number of instructions fetched each cycle (Total)
system.switch_cpus_1.idleCycles                 18521                       # Total number of cycles that the CPU has spent unscheduled due to idling
system.switch_cpus_1.iew.EXEC:branches        1993569                       # Number of branches executed
system.switch_cpus_1.iew.EXEC:nop              879627                       # number of nop insts executed
system.switch_cpus_1.iew.EXEC:rate           1.409558                       # Inst execution rate
system.switch_cpus_1.iew.EXEC:refs            3585264                       # number of memory reference insts executed
system.switch_cpus_1.iew.EXEC:stores          1636614                       # Number of stores executed
system.switch_cpus_1.iew.EXEC:swp                   0                       # number of swp insts executed
system.switch_cpus_1.iew.WB:consumers         8730578                       # num instructions consuming a value
system.switch_cpus_1.iew.WB:count            11892806                       # cumulative count of insts written-back
system.switch_cpus_1.iew.WB:fanout           0.765778                       # average fanout of values written-back
system.switch_cpus_1.iew.WB:penalized               0                       # number of instrctions required to write to 'other' IQ
system.switch_cpus_1.iew.WB:penalized_rate            0                       # fraction of instructions written-back that wrote to 'other' IQ
system.switch_cpus_1.iew.WB:producers         6685681                       # num instructions producing a value
system.switch_cpus_1.iew.WB:rate             1.398677                       # insts written-back per cycle
system.switch_cpus_1.iew.WB:sent             11902631                       # cumulative count of insts sent to commit
system.switch_cpus_1.iew.branchMispredicts       173329                       # Number of branch mispredicts detected at execute
system.switch_cpus_1.iew.iewBlockCycles          9534                       # Number of cycles IEW is blocking
system.switch_cpus_1.iew.iewDispLoadInsts      2066794                       # Number of dispatched load instructions
system.switch_cpus_1.iew.iewDispNonSpecInsts            0                       # Number of dispatched non-speculative instructions
system.switch_cpus_1.iew.iewDispSquashedInsts       391745                       # Number of squashed instructions skipped by dispatch
system.switch_cpus_1.iew.iewDispStoreInsts      1711185                       # Number of dispatched store instructions
system.switch_cpus_1.iew.iewDispatchedInsts     13519119                       # Number of instructions dispatched to IQ
system.switch_cpus_1.iew.iewExecLoadInsts      1948650                       # Number of load instructions executed
system.switch_cpus_1.iew.iewExecSquashedInsts       151414                       # Number of squashed instructions skipped in execute
system.switch_cpus_1.iew.iewExecutedInsts     11985328                       # Number of executed instructions
system.switch_cpus_1.iew.iewIQFullEvents           75                       # Number of times the IQ has become full, causing a stall
system.switch_cpus_1.iew.iewIdleCycles              0                       # Number of cycles IEW is idle
system.switch_cpus_1.iew.iewLSQFullEvents            9                       # Number of times the LSQ has become full, causing a stall
system.switch_cpus_1.iew.iewSquashCycles       514914                       # Number of cycles IEW is squashing
system.switch_cpus_1.iew.iewUnblockCycles          384                       # Number of cycles IEW is unblocking
system.switch_cpus_1.iew.lsq.thread.0.blockedLoads            0                       # Number of blocked loads due to partial load-store forwarding
system.switch_cpus_1.iew.lsq.thread.0.cacheBlocked        14889                       # Number of times an access to memory failed due to the cache being blocked
system.switch_cpus_1.iew.lsq.thread.0.forwLoads       144809                       # Number of loads that had data forwarded from stores
system.switch_cpus_1.iew.lsq.thread.0.ignoredResponses        10099                       # Number of memory responses ignored because the instruction is squashed
system.switch_cpus_1.iew.lsq.thread.0.invAddrLoads            0                       # Number of loads ignored due to an invalid address
system.switch_cpus_1.iew.lsq.thread.0.invAddrSwpfs            0                       # Number of software prefetches ignored due to an invalid address
system.switch_cpus_1.iew.lsq.thread.0.memOrderViolation        11488                       # Number of memory ordering violations
system.switch_cpus_1.iew.lsq.thread.0.rescheduledLoads            0                       # Number of loads that were rescheduled
system.switch_cpus_1.iew.lsq.thread.0.squashedLoads       460211                       # Number of loads squashed
system.switch_cpus_1.iew.lsq.thread.0.squashedStores       313763                       # Number of stores squashed
system.switch_cpus_1.iew.memOrderViolationEvents        11488                       # Number of memory order violations
system.switch_cpus_1.iew.predictedNotTakenIncorrect        28525                       # Number of branches that were predicted not taken incorrectly
system.switch_cpus_1.iew.predictedTakenIncorrect       144804                       # Number of branches that were predicted taken incorrectly
system.switch_cpus_1.ipc                     1.176070                       # IPC: Instructions Per Cycle
system.switch_cpus_1.ipc_total               1.176070                       # IPC: Total IPC of All Threads
system.switch_cpus_1.iq.ISSUE:FU_type_0::No_OpClass            0      0.00%      0.00% # Type of FU issued
system.switch_cpus_1.iq.ISSUE:FU_type_0::IntAlu      8513599     70.15%     70.15% # Type of FU issued
system.switch_cpus_1.iq.ISSUE:FU_type_0::IntMult            0      0.00%     70.15% # Type of FU issued
system.switch_cpus_1.iq.ISSUE:FU_type_0::IntDiv            0      0.00%     70.15% # Type of FU issued
system.switch_cpus_1.iq.ISSUE:FU_type_0::FloatAdd            0      0.00%     70.15% # Type of FU issued
system.switch_cpus_1.iq.ISSUE:FU_type_0::FloatCmp            0      0.00%     70.15% # Type of FU issued
system.switch_cpus_1.iq.ISSUE:FU_type_0::FloatCvt            0      0.00%     70.15% # Type of FU issued
system.switch_cpus_1.iq.ISSUE:FU_type_0::FloatMult            0      0.00%     70.15% # Type of FU issued
system.switch_cpus_1.iq.ISSUE:FU_type_0::FloatDiv            0      0.00%     70.15% # Type of FU issued
system.switch_cpus_1.iq.ISSUE:FU_type_0::FloatSqrt            0      0.00%     70.15% # Type of FU issued
system.switch_cpus_1.iq.ISSUE:FU_type_0::MemRead      1963595     16.18%     86.33% # Type of FU issued
system.switch_cpus_1.iq.ISSUE:FU_type_0::MemWrite      1659549     13.67%    100.00% # Type of FU issued
system.switch_cpus_1.iq.ISSUE:FU_type_0::IprAccess            0      0.00%    100.00% # Type of FU issued
system.switch_cpus_1.iq.ISSUE:FU_type_0::InstPrefetch            0      0.00%    100.00% # Type of FU issued
system.switch_cpus_1.iq.ISSUE:FU_type_0::total     12136743                       # Type of FU issued
system.switch_cpus_1.iq.ISSUE:fu_busy_cnt         6189                       # FU busy when requested
system.switch_cpus_1.iq.ISSUE:fu_busy_rate     0.000510                       # FU busy rate (busy events/executed inst)
system.switch_cpus_1.iq.ISSUE:fu_full::No_OpClass            0      0.00%      0.00% # attempts to use FU when none available
system.switch_cpus_1.iq.ISSUE:fu_full::IntAlu         5390     87.09%     87.09% # attempts to use FU when none available
system.switch_cpus_1.iq.ISSUE:fu_full::IntMult            0      0.00%     87.09% # attempts to use FU when none available
system.switch_cpus_1.iq.ISSUE:fu_full::IntDiv            0      0.00%     87.09% # attempts to use FU when none available
system.switch_cpus_1.iq.ISSUE:fu_full::FloatAdd            0      0.00%     87.09% # attempts to use FU when none available
system.switch_cpus_1.iq.ISSUE:fu_full::FloatCmp            0      0.00%     87.09% # attempts to use FU when none available
system.switch_cpus_1.iq.ISSUE:fu_full::FloatCvt            0      0.00%     87.09% # attempts to use FU when none available
system.switch_cpus_1.iq.ISSUE:fu_full::FloatMult            0      0.00%     87.09% # attempts to use FU when none available
system.switch_cpus_1.iq.ISSUE:fu_full::FloatDiv            0      0.00%     87.09% # attempts to use FU when none available
system.switch_cpus_1.iq.ISSUE:fu_full::FloatSqrt            0      0.00%     87.09% # attempts to use FU when none available
system.switch_cpus_1.iq.ISSUE:fu_full::MemRead          603      9.74%     96.83% # attempts to use FU when none available
system.switch_cpus_1.iq.ISSUE:fu_full::MemWrite          196      3.17%    100.00% # attempts to use FU when none available
system.switch_cpus_1.iq.ISSUE:fu_full::IprAccess            0      0.00%    100.00% # attempts to use FU when none available
system.switch_cpus_1.iq.ISSUE:fu_full::InstPrefetch            0      0.00%    100.00% # attempts to use FU when none available
system.switch_cpus_1.iq.ISSUE:issued_per_cycle::samples      8484375                       # Number of insts issued each cycle
system.switch_cpus_1.iq.ISSUE:issued_per_cycle::mean     1.430482                       # Number of insts issued each cycle
system.switch_cpus_1.iq.ISSUE:issued_per_cycle::stdev     1.319635                       # Number of insts issued each cycle
system.switch_cpus_1.iq.ISSUE:issued_per_cycle::underflows            0      0.00%      0.00% # Number of insts issued each cycle
system.switch_cpus_1.iq.ISSUE:issued_per_cycle::0      2377720     28.02%     28.02% # Number of insts issued each cycle
system.switch_cpus_1.iq.ISSUE:issued_per_cycle::1      2550951     30.07%     58.09% # Number of insts issued each cycle
system.switch_cpus_1.iq.ISSUE:issued_per_cycle::2      2321610     27.36%     85.45% # Number of insts issued each cycle
system.switch_cpus_1.iq.ISSUE:issued_per_cycle::3       201742      2.38%     87.83% # Number of insts issued each cycle
system.switch_cpus_1.iq.ISSUE:issued_per_cycle::4       864271     10.19%     98.02% # Number of insts issued each cycle
system.switch_cpus_1.iq.ISSUE:issued_per_cycle::5       135067      1.59%     99.61% # Number of insts issued each cycle
system.switch_cpus_1.iq.ISSUE:issued_per_cycle::6        26595      0.31%     99.92% # Number of insts issued each cycle
system.switch_cpus_1.iq.ISSUE:issued_per_cycle::7         5995      0.07%    100.00% # Number of insts issued each cycle
system.switch_cpus_1.iq.ISSUE:issued_per_cycle::8          424      0.00%    100.00% # Number of insts issued each cycle
system.switch_cpus_1.iq.ISSUE:issued_per_cycle::overflows            0      0.00%    100.00% # Number of insts issued each cycle
system.switch_cpus_1.iq.ISSUE:issued_per_cycle::min_value            0                       # Number of insts issued each cycle
system.switch_cpus_1.iq.ISSUE:issued_per_cycle::max_value            8                       # Number of insts issued each cycle
system.switch_cpus_1.iq.ISSUE:issued_per_cycle::total      8484375                       # Number of insts issued each cycle
system.switch_cpus_1.iq.ISSUE:rate           1.427366                       # Inst issue rate
system.switch_cpus_1.iq.iqInstsAdded         12639492                       # Number of instructions added to the IQ (excludes non-spec)
system.switch_cpus_1.iq.iqInstsIssued        12136743                       # Number of instructions issued
system.switch_cpus_1.iq.iqSquashedInstsExamined      2360104                       # Number of squashed instructions iterated over during squash; mainly for profiling
system.switch_cpus_1.iq.iqSquashedInstsIssued         2191                       # Number of squashed instructions issued
system.switch_cpus_1.iq.iqSquashedOperandsExamined       921731                       # Number of squashed operands that are examined and possibly removed from graph
system.switch_cpus_1.itb.data_accesses              0                       # DTB accesses
system.switch_cpus_1.itb.data_acv                   0                       # DTB access violations
system.switch_cpus_1.itb.data_hits                  0                       # DTB hits
system.switch_cpus_1.itb.data_misses                0                       # DTB misses
system.switch_cpus_1.itb.fetch_accesses       2279827                       # ITB accesses
system.switch_cpus_1.itb.fetch_acv                  0                       # ITB acv
system.switch_cpus_1.itb.fetch_hits           2279826                       # ITB hits
system.switch_cpus_1.itb.fetch_misses               1                       # ITB misses
system.switch_cpus_1.itb.read_accesses              0                       # DTB read accesses
system.switch_cpus_1.itb.read_acv                   0                       # DTB read access violations
system.switch_cpus_1.itb.read_hits                  0                       # DTB read hits
system.switch_cpus_1.itb.read_misses                0                       # DTB read misses
system.switch_cpus_1.itb.write_accesses             0                       # DTB write accesses
system.switch_cpus_1.itb.write_acv                  0                       # DTB write access violations
system.switch_cpus_1.itb.write_hits                 0                       # DTB write hits
system.switch_cpus_1.itb.write_misses               0                       # DTB write misses
system.switch_cpus_1.memDep0.conflictingLoads       611871                       # Number of conflicting loads.
system.switch_cpus_1.memDep0.conflictingStores         1425                       # Number of conflicting stores.
system.switch_cpus_1.memDep0.insertedLoads      2066794                       # Number of loads inserted to the mem dependence unit.
system.switch_cpus_1.memDep0.insertedStores      1711185                       # Number of stores inserted to the mem dependence unit.
system.switch_cpus_1.numCycles                8502896                       # number of cpu cycles simulated
system.switch_cpus_1.rename.RENAME:BlockCycles        71763                       # Number of cycles rename is blocking
system.switch_cpus_1.rename.RENAME:CommittedMaps      6978824                       # Number of HB maps that are committed
system.switch_cpus_1.rename.RENAME:IQFullEvents          234                       # Number of times rename has blocked due to IQ full
system.switch_cpus_1.rename.RENAME:IdleCycles      4636880                       # Number of cycles rename is idle
system.switch_cpus_1.rename.RENAME:LSQFullEvents        31157                       # Number of times rename has blocked due to LSQ full
system.switch_cpus_1.rename.RENAME:ROBFullEvents         3081                       # Number of times rename has blocked due to ROB full
system.switch_cpus_1.rename.RENAME:RenameLookups     19183098                       # Number of register rename lookups that rename has made
system.switch_cpus_1.rename.RENAME:RenamedInsts     14438224                       # Number of instructions processed by rename
system.switch_cpus_1.rename.RENAME:RenamedOperands      9462141                       # Number of destination operands rename has renamed
system.switch_cpus_1.rename.RENAME:RunCycles      3226469                       # Number of cycles rename is running
system.switch_cpus_1.rename.RENAME:SquashCycles       514914                       # Number of cycles rename is squashing
system.switch_cpus_1.rename.RENAME:UnblockCycles        34348                       # Number of cycles rename is unblocking
system.switch_cpus_1.rename.RENAME:UndoneMaps      2483304                       # Number of HB maps that are undone due to squashing
system.switch_cpus_1.rename.RENAME:serializeStallCycles            0                       # count of cycles rename stalled for serializing inst
system.switch_cpus_1.rename.RENAME:serializingInsts            0                       # count of serializing insts renamed
system.switch_cpus_1.rename.RENAME:skidInsts        64644                       # count of insts added to the skid buffer
system.switch_cpus_1.rename.RENAME:tempSerializingInsts            0                       # count of temporary serializing insts renamed
system.switch_cpus_1.timesIdled                   980                       # Number of times that the entire CPU went into an idle state and unscheduled itself

---------- End Simulation Statistics   ----------
