
---------- Begin Simulation Statistics ----------
host_inst_rate                                 636559                       # Simulator instruction rate (inst/s)
host_mem_usage                                 389940                       # Number of bytes of host memory used
host_seconds                                    31.42                       # Real time elapsed on the host
host_tick_rate                              586731197                       # Simulator tick rate (ticks/s)
sim_freq                                 1000000000000                       # Frequency of simulated ticks
sim_insts                                    20000010                       # Number of instructions simulated
sim_seconds                                  0.018435                       # Number of seconds simulated
sim_ticks                                 18434585500                       # Number of ticks simulated
system.cpu.dcache.ReadReq_accesses            4257523                       # number of ReadReq accesses(hits+misses)
system.cpu.dcache.ReadReq_avg_miss_latency 43114.915589                       # average ReadReq miss latency
system.cpu.dcache.ReadReq_avg_mshr_miss_latency 40249.279435                       # average ReadReq mshr miss latency
system.cpu.dcache.ReadReq_hits                4230216                       # number of ReadReq hits
system.cpu.dcache.ReadReq_miss_latency     1177339000                       # number of ReadReq miss cycles
system.cpu.dcache.ReadReq_miss_rate          0.006414                       # miss rate for ReadReq accesses
system.cpu.dcache.ReadReq_misses                27307                       # number of ReadReq misses
system.cpu.dcache.ReadReq_mshr_hits             13429                       # number of ReadReq MSHR hits
system.cpu.dcache.ReadReq_mshr_miss_latency    558579500                       # number of ReadReq MSHR miss cycles
system.cpu.dcache.ReadReq_mshr_miss_rate     0.003260                       # mshr miss rate for ReadReq accesses
system.cpu.dcache.ReadReq_mshr_misses           13878                       # number of ReadReq MSHR misses
system.cpu.dcache.WriteReq_accesses           2851610                       # number of WriteReq accesses(hits+misses)
system.cpu.dcache.WriteReq_avg_miss_latency 80841.380172                       # average WriteReq miss latency
system.cpu.dcache.WriteReq_avg_mshr_miss_latency 89668.651831                       # average WriteReq mshr miss latency
system.cpu.dcache.WriteReq_hits               2799815                       # number of WriteReq hits
system.cpu.dcache.WriteReq_miss_latency    4187179286                       # number of WriteReq miss cycles
system.cpu.dcache.WriteReq_miss_rate         0.018163                       # miss rate for WriteReq accesses
system.cpu.dcache.WriteReq_misses               51795                       # number of WriteReq misses
system.cpu.dcache.WriteReq_mshr_hits            25529                       # number of WriteReq MSHR hits
system.cpu.dcache.WriteReq_mshr_miss_latency   2355236809                       # number of WriteReq MSHR miss cycles
system.cpu.dcache.WriteReq_mshr_miss_rate     0.009211                       # mshr miss rate for WriteReq accesses
system.cpu.dcache.WriteReq_mshr_misses          26266                       # number of WriteReq MSHR misses
system.cpu.dcache.avg_blocked_cycles::no_mshrs 22132.158169                       # average number of cycles each access was blocked
system.cpu.dcache.avg_blocked_cycles::no_targets 56523.827222                       # average number of cycles each access was blocked
system.cpu.dcache.avg_refs                 242.181753                       # Average number of references to valid blocks.
system.cpu.dcache.blocked::no_mshrs              4217                       # number of cycles access was blocked
system.cpu.dcache.blocked::no_targets            9463                       # number of cycles access was blocked
system.cpu.dcache.blocked_cycles::no_mshrs     93331311                       # number of cycles access was blocked
system.cpu.dcache.blocked_cycles::no_targets    534884977                       # number of cycles access was blocked
system.cpu.dcache.cache_copies                      0                       # number of cache copies performed
system.cpu.dcache.demand_accesses             7109133                       # number of demand (read+write) accesses
system.cpu.dcache.demand_avg_miss_latency 67817.732624                       # average overall miss latency
system.cpu.dcache.demand_avg_mshr_miss_latency 72584.104947                       # average overall mshr miss latency
system.cpu.dcache.demand_hits                 7030031                       # number of demand (read+write) hits
system.cpu.dcache.demand_miss_latency      5364518286                       # number of demand (read+write) miss cycles
system.cpu.dcache.demand_miss_rate           0.011127                       # miss rate for demand accesses
system.cpu.dcache.demand_misses                 79102                       # number of demand (read+write) misses
system.cpu.dcache.demand_mshr_hits              38958                       # number of demand (read+write) MSHR hits
system.cpu.dcache.demand_mshr_miss_latency   2913816309                       # number of demand (read+write) MSHR miss cycles
system.cpu.dcache.demand_mshr_miss_rate      0.005647                       # mshr miss rate for demand accesses
system.cpu.dcache.demand_mshr_misses            40144                       # number of demand (read+write) MSHR misses
system.cpu.dcache.fast_writes                       0                       # number of fast writes performed
system.cpu.dcache.mshr_cap_events                   0                       # number of times MSHR cap was activated
system.cpu.dcache.no_allocate_misses                0                       # Number of misses that were no-allocate
system.cpu.dcache.occ_%::0                   0.965756                       # Average percentage of cache occupancy
system.cpu.dcache.occ_blocks::0            988.934587                       # Average occupied blocks per context
system.cpu.dcache.overall_accesses            7109133                       # number of overall (read+write) accesses
system.cpu.dcache.overall_avg_miss_latency 67817.732624                       # average overall miss latency
system.cpu.dcache.overall_avg_mshr_miss_latency 72584.104947                       # average overall mshr miss latency
system.cpu.dcache.overall_avg_mshr_uncacheable_latency     no_value                       # average overall mshr uncacheable latency
system.cpu.dcache.overall_hits                7030031                       # number of overall hits
system.cpu.dcache.overall_miss_latency     5364518286                       # number of overall miss cycles
system.cpu.dcache.overall_miss_rate          0.011127                       # miss rate for overall accesses
system.cpu.dcache.overall_misses                79102                       # number of overall misses
system.cpu.dcache.overall_mshr_hits             38958                       # number of overall MSHR hits
system.cpu.dcache.overall_mshr_miss_latency   2913816309                       # number of overall MSHR miss cycles
system.cpu.dcache.overall_mshr_miss_rate     0.005647                       # mshr miss rate for overall accesses
system.cpu.dcache.overall_mshr_misses           40144                       # number of overall MSHR misses
system.cpu.dcache.overall_mshr_uncacheable_latency            0                       # number of overall MSHR uncacheable cycles
system.cpu.dcache.overall_mshr_uncacheable_misses            0                       # number of overall MSHR uncacheable misses
system.cpu.dcache.prefetch_accuracy          no_value                       # ratio of good prefetches to total prefetches
system.cpu.dcache.prefetch_hits                     0                       # number of prefetched blocks that were accessed
system.cpu.dcache.replacements                  28098                       # number of replacements
system.cpu.dcache.sampled_refs                  29122                       # Sample count of references to valid blocks.
system.cpu.dcache.soft_prefetch_mshr_full            0                       # number of mshr full events for SW prefetching instrutions
system.cpu.dcache.tagsinuse                988.934587                       # Cycle average of tags in use
system.cpu.dcache.total_refs                  7052817                       # Total number of references to valid blocks.
system.cpu.dcache.warmup_cycle           505751590000                       # Cycle when the warmup percentage was hit.
system.cpu.dcache.writebacks                    25298                       # number of writebacks
system.cpu.dtb.data_accesses                        0                       # DTB accesses
system.cpu.dtb.data_acv                             0                       # DTB access violations
system.cpu.dtb.data_hits                            0                       # DTB hits
system.cpu.dtb.data_misses                          0                       # DTB misses
system.cpu.dtb.fetch_accesses                       0                       # ITB accesses
system.cpu.dtb.fetch_acv                            0                       # ITB acv
system.cpu.dtb.fetch_hits                           0                       # ITB hits
system.cpu.dtb.fetch_misses                         0                       # ITB misses
system.cpu.dtb.read_accesses                        0                       # DTB read accesses
system.cpu.dtb.read_acv                             0                       # DTB read access violations
system.cpu.dtb.read_hits                            0                       # DTB read hits
system.cpu.dtb.read_misses                          0                       # DTB read misses
system.cpu.dtb.write_accesses                       0                       # DTB write accesses
system.cpu.dtb.write_acv                            0                       # DTB write access violations
system.cpu.dtb.write_hits                           0                       # DTB write hits
system.cpu.dtb.write_misses                         0                       # DTB write misses
system.cpu.icache.ReadReq_accesses           11271874                       # number of ReadReq accesses(hits+misses)
system.cpu.icache.ReadReq_avg_miss_latency 14170.051096                       # average ReadReq miss latency
system.cpu.icache.ReadReq_avg_mshr_miss_latency 11376.022379                       # average ReadReq mshr miss latency
system.cpu.icache.ReadReq_hits               11195938                       # number of ReadReq hits
system.cpu.icache.ReadReq_miss_latency     1076017000                       # number of ReadReq miss cycles
system.cpu.icache.ReadReq_miss_rate          0.006737                       # miss rate for ReadReq accesses
system.cpu.icache.ReadReq_misses                75936                       # number of ReadReq misses
system.cpu.icache.ReadReq_mshr_hits              3187                       # number of ReadReq MSHR hits
system.cpu.icache.ReadReq_mshr_miss_latency    827571500                       # number of ReadReq MSHR miss cycles
system.cpu.icache.ReadReq_mshr_miss_rate     0.006454                       # mshr miss rate for ReadReq accesses
system.cpu.icache.ReadReq_mshr_misses           72747                       # number of ReadReq MSHR misses
system.cpu.icache.avg_blocked_cycles::no_mshrs     no_value                       # average number of cycles each access was blocked
system.cpu.icache.avg_blocked_cycles::no_targets 63666.666667                       # average number of cycles each access was blocked
system.cpu.icache.avg_refs                 153.898170                       # Average number of references to valid blocks.
system.cpu.icache.blocked::no_mshrs                 0                       # number of cycles access was blocked
system.cpu.icache.blocked::no_targets               3                       # number of cycles access was blocked
system.cpu.icache.blocked_cycles::no_mshrs            0                       # number of cycles access was blocked
system.cpu.icache.blocked_cycles::no_targets       191000                       # number of cycles access was blocked
system.cpu.icache.cache_copies                      0                       # number of cache copies performed
system.cpu.icache.demand_accesses            11271874                       # number of demand (read+write) accesses
system.cpu.icache.demand_avg_miss_latency 14170.051096                       # average overall miss latency
system.cpu.icache.demand_avg_mshr_miss_latency 11376.022379                       # average overall mshr miss latency
system.cpu.icache.demand_hits                11195938                       # number of demand (read+write) hits
system.cpu.icache.demand_miss_latency      1076017000                       # number of demand (read+write) miss cycles
system.cpu.icache.demand_miss_rate           0.006737                       # miss rate for demand accesses
system.cpu.icache.demand_misses                 75936                       # number of demand (read+write) misses
system.cpu.icache.demand_mshr_hits               3187                       # number of demand (read+write) MSHR hits
system.cpu.icache.demand_mshr_miss_latency    827571500                       # number of demand (read+write) MSHR miss cycles
system.cpu.icache.demand_mshr_miss_rate      0.006454                       # mshr miss rate for demand accesses
system.cpu.icache.demand_mshr_misses            72747                       # number of demand (read+write) MSHR misses
system.cpu.icache.fast_writes                       0                       # number of fast writes performed
system.cpu.icache.mshr_cap_events                   0                       # number of times MSHR cap was activated
system.cpu.icache.no_allocate_misses                0                       # Number of misses that were no-allocate
system.cpu.icache.occ_%::0                   0.809739                       # Average percentage of cache occupancy
system.cpu.icache.occ_blocks::0            414.586194                       # Average occupied blocks per context
system.cpu.icache.overall_accesses           11271874                       # number of overall (read+write) accesses
system.cpu.icache.overall_avg_miss_latency 14170.051096                       # average overall miss latency
system.cpu.icache.overall_avg_mshr_miss_latency 11376.022379                       # average overall mshr miss latency
system.cpu.icache.overall_avg_mshr_uncacheable_latency     no_value                       # average overall mshr uncacheable latency
system.cpu.icache.overall_hits               11195938                       # number of overall hits
system.cpu.icache.overall_miss_latency     1076017000                       # number of overall miss cycles
system.cpu.icache.overall_miss_rate          0.006737                       # miss rate for overall accesses
system.cpu.icache.overall_misses                75936                       # number of overall misses
system.cpu.icache.overall_mshr_hits              3187                       # number of overall MSHR hits
system.cpu.icache.overall_mshr_miss_latency    827571500                       # number of overall MSHR miss cycles
system.cpu.icache.overall_mshr_miss_rate     0.006454                       # mshr miss rate for overall accesses
system.cpu.icache.overall_mshr_misses           72747                       # number of overall MSHR misses
system.cpu.icache.overall_mshr_uncacheable_latency            0                       # number of overall MSHR uncacheable cycles
system.cpu.icache.overall_mshr_uncacheable_misses            0                       # number of overall MSHR uncacheable misses
system.cpu.icache.prefetch_accuracy          no_value                       # ratio of good prefetches to total prefetches
system.cpu.icache.prefetch_hits                     0                       # number of prefetched blocks that were accessed
system.cpu.icache.replacements                  72308                       # number of replacements
system.cpu.icache.sampled_refs                  72749                       # Sample count of references to valid blocks.
system.cpu.icache.soft_prefetch_mshr_full            0                       # number of mshr full events for SW prefetching instrutions
system.cpu.icache.tagsinuse                414.586194                       # Cycle average of tags in use
system.cpu.icache.total_refs                 11195938                       # Total number of references to valid blocks.
system.cpu.icache.warmup_cycle                      0                       # Cycle when the warmup percentage was hit.
system.cpu.icache.writebacks                        0                       # number of writebacks
system.cpu.idle_fraction                            0                       # Percentage of idle cycles
system.cpu.itb.data_accesses                        0                       # DTB accesses
system.cpu.itb.data_acv                             0                       # DTB access violations
system.cpu.itb.data_hits                            0                       # DTB hits
system.cpu.itb.data_misses                          0                       # DTB misses
system.cpu.itb.fetch_accesses                       2                       # ITB accesses
system.cpu.itb.fetch_acv                            0                       # ITB acv
system.cpu.itb.fetch_hits                           2                       # ITB hits
system.cpu.itb.fetch_misses                         0                       # ITB misses
system.cpu.itb.read_accesses                        0                       # DTB read accesses
system.cpu.itb.read_acv                             0                       # DTB read access violations
system.cpu.itb.read_hits                            0                       # DTB read hits
system.cpu.itb.read_misses                          0                       # DTB read misses
system.cpu.itb.write_accesses                       0                       # DTB write accesses
system.cpu.itb.write_acv                            0                       # DTB write access violations
system.cpu.itb.write_hits                           0                       # DTB write hits
system.cpu.itb.write_misses                         0                       # DTB write misses
system.cpu.not_idle_fraction                        1                       # Percentage of non-idle cycles
system.cpu.numCycles                                2                       # number of cpu cycles simulated
system.cpu.num_insts                                2                       # Number of instructions executed
system.cpu.num_refs                                 0                       # Number of memory references
system.cpu.workload.PROG:num_syscalls               0                       # Number of system calls
system.l2.HardPFReq_avg_mshr_miss_latency 47734.001998                       # average HardPFReq mshr miss latency
system.l2.HardPFReq_mshr_miss_latency       429987890                       # number of HardPFReq MSHR miss cycles
system.l2.HardPFReq_mshr_miss_rate                inf                       # mshr miss rate for HardPFReq accesses
system.l2.HardPFReq_mshr_misses                  9008                       # number of HardPFReq MSHR misses
system.l2.ReadExReq_accesses                    15244                       # number of ReadExReq accesses(hits+misses)
system.l2.ReadExReq_avg_miss_latency     112406.042432                       # average ReadExReq miss latency
system.l2.ReadExReq_avg_mshr_miss_latency 97063.643919                       # average ReadExReq mshr miss latency
system.l2.ReadExReq_hits                          444                       # number of ReadExReq hits
system.l2.ReadExReq_miss_latency           1663609428                       # number of ReadExReq miss cycles
system.l2.ReadExReq_miss_rate                0.970874                       # miss rate for ReadExReq accesses
system.l2.ReadExReq_misses                      14800                       # number of ReadExReq misses
system.l2.ReadExReq_mshr_miss_latency      1436541930                       # number of ReadExReq MSHR miss cycles
system.l2.ReadExReq_mshr_miss_rate           0.970874                       # mshr miss rate for ReadExReq accesses
system.l2.ReadExReq_mshr_misses                 14800                       # number of ReadExReq MSHR misses
system.l2.ReadReq_accesses                      86627                       # number of ReadReq accesses(hits+misses)
system.l2.ReadReq_avg_miss_latency       69853.149488                       # average ReadReq miss latency
system.l2.ReadReq_avg_mshr_miss_latency  54230.328610                       # average ReadReq mshr miss latency
system.l2.ReadReq_hits                          79991                       # number of ReadReq hits
system.l2.ReadReq_miss_latency              463545500                       # number of ReadReq miss cycles
system.l2.ReadReq_miss_rate                  0.076604                       # miss rate for ReadReq accesses
system.l2.ReadReq_misses                         6636                       # number of ReadReq misses
system.l2.ReadReq_mshr_miss_latency         359764000                       # number of ReadReq MSHR miss cycles
system.l2.ReadReq_mshr_miss_rate             0.076581                       # mshr miss rate for ReadReq accesses
system.l2.ReadReq_mshr_misses                    6634                       # number of ReadReq MSHR misses
system.l2.UpgradeReq_accesses                   11022                       # number of UpgradeReq accesses(hits+misses)
system.l2.UpgradeReq_avg_miss_latency    56736.172655                       # average UpgradeReq miss latency
system.l2.UpgradeReq_avg_mshr_miss_latency 40797.505807                       # average UpgradeReq mshr miss latency
system.l2.UpgradeReq_miss_latency           625346095                       # number of UpgradeReq miss cycles
system.l2.UpgradeReq_miss_rate                      1                       # miss rate for UpgradeReq accesses
system.l2.UpgradeReq_misses                     11022                       # number of UpgradeReq misses
system.l2.UpgradeReq_mshr_miss_latency      449670109                       # number of UpgradeReq MSHR miss cycles
system.l2.UpgradeReq_mshr_miss_rate                 1                       # mshr miss rate for UpgradeReq accesses
system.l2.UpgradeReq_mshr_misses                11022                       # number of UpgradeReq MSHR misses
system.l2.Writeback_accesses                    25298                       # number of Writeback accesses(hits+misses)
system.l2.Writeback_hits                        25298                       # number of Writeback hits
system.l2.avg_blocked_cycles::no_mshrs       no_value                       # average number of cycles each access was blocked
system.l2.avg_blocked_cycles::no_targets     no_value                       # average number of cycles each access was blocked
system.l2.avg_refs                           5.384796                       # Average number of references to valid blocks.
system.l2.blocked::no_mshrs                         0                       # number of cycles access was blocked
system.l2.blocked::no_targets                       0                       # number of cycles access was blocked
system.l2.blocked_cycles::no_mshrs                  0                       # number of cycles access was blocked
system.l2.blocked_cycles::no_targets                0                       # number of cycles access was blocked
system.l2.cache_copies                              0                       # number of cache copies performed
system.l2.demand_accesses                      101871                       # number of demand (read+write) accesses
system.l2.demand_avg_miss_latency        99232.829259                       # average overall miss latency
system.l2.demand_avg_mshr_miss_latency   83806.379117                       # average overall mshr miss latency
system.l2.demand_hits                           80435                       # number of demand (read+write) hits
system.l2.demand_miss_latency              2127154928                       # number of demand (read+write) miss cycles
system.l2.demand_miss_rate                   0.210423                       # miss rate for demand accesses
system.l2.demand_misses                         21436                       # number of demand (read+write) misses
system.l2.demand_mshr_hits                          0                       # number of demand (read+write) MSHR hits
system.l2.demand_mshr_miss_latency         1796305930                       # number of demand (read+write) MSHR miss cycles
system.l2.demand_mshr_miss_rate              0.210403                       # mshr miss rate for demand accesses
system.l2.demand_mshr_misses                    21434                       # number of demand (read+write) MSHR misses
system.l2.fast_writes                               0                       # number of fast writes performed
system.l2.mshr_cap_events                           0                       # number of times MSHR cap was activated
system.l2.no_allocate_misses                        0                       # Number of misses that were no-allocate
system.l2.occ_%::0                           0.186989                       # Average percentage of cache occupancy
system.l2.occ_%::1                           0.118394                       # Average percentage of cache occupancy
system.l2.occ_blocks::0                   3063.621903                       # Average occupied blocks per context
system.l2.occ_blocks::1                   1939.770993                       # Average occupied blocks per context
system.l2.overall_accesses                     101871                       # number of overall (read+write) accesses
system.l2.overall_avg_miss_latency       99232.829259                       # average overall miss latency
system.l2.overall_avg_mshr_miss_latency  73132.311280                       # average overall mshr miss latency
system.l2.overall_avg_mshr_uncacheable_latency     no_value                       # average overall mshr uncacheable latency
system.l2.overall_hits                          80435                       # number of overall hits
system.l2.overall_miss_latency             2127154928                       # number of overall miss cycles
system.l2.overall_miss_rate                  0.210423                       # miss rate for overall accesses
system.l2.overall_misses                        21436                       # number of overall misses
system.l2.overall_mshr_hits                         0                       # number of overall MSHR hits
system.l2.overall_mshr_miss_latency        2226293820                       # number of overall MSHR miss cycles
system.l2.overall_mshr_miss_rate             0.298829                       # mshr miss rate for overall accesses
system.l2.overall_mshr_misses                   30442                       # number of overall MSHR misses
system.l2.overall_mshr_uncacheable_latency            0                       # number of overall MSHR uncacheable cycles
system.l2.overall_mshr_uncacheable_misses            0                       # number of overall MSHR uncacheable misses
system.l2.prefetch_accuracy                  0.928508                       # ratio of good prefetches to total prefetches
system.l2.prefetch_hits                          8364                       # number of prefetched blocks that were accessed
system.l2.prefetcher.num_hwpf_already_in_prefetcher          140                       # number of hwpf that were already in the prefetch queue
system.l2.prefetcher.num_hwpf_evicted               0                       # number of hwpf removed due to no buffer left
system.l2.prefetcher.num_hwpf_identified         9159                       # number of hwpf identified
system.l2.prefetcher.num_hwpf_issued             9008                       # number of hwpf issued
system.l2.prefetcher.num_hwpf_removed_MSHR_hit           11                       # number of hwpf removed because MSHR allocated
system.l2.prefetcher.num_hwpf_span_page             0                       # number of hwpf spanning a virtual page
system.l2.prefetcher.num_hwpf_squashed_from_miss            0                       # number of hwpf that got squashed due to a miss aborting calculation time
system.l2.replacements                           9206                       # number of replacements
system.l2.sampled_refs                          17048                       # Sample count of references to valid blocks.
system.l2.soft_prefetch_mshr_full                   0                       # number of mshr full events for SW prefetching instrutions
system.l2.tagsinuse                       5003.392896                       # Cycle average of tags in use
system.l2.total_refs                            91800                       # Total number of references to valid blocks.
system.l2.warmup_cycle                              0                       # Cycle when the warmup percentage was hit.
system.l2.writebacks                             8738                       # number of writebacks
system.switch_cpus.dtb.data_accesses          3533281                       # DTB accesses
system.switch_cpus.dtb.data_acv                     0                       # DTB access violations
system.switch_cpus.dtb.data_hits              3533187                       # DTB hits
system.switch_cpus.dtb.data_misses                 94                       # DTB misses
system.switch_cpus.dtb.fetch_accesses               0                       # ITB accesses
system.switch_cpus.dtb.fetch_acv                    0                       # ITB acv
system.switch_cpus.dtb.fetch_hits                   0                       # ITB hits
system.switch_cpus.dtb.fetch_misses                 0                       # ITB misses
system.switch_cpus.dtb.read_accesses          2118869                       # DTB read accesses
system.switch_cpus.dtb.read_acv                     0                       # DTB read access violations
system.switch_cpus.dtb.read_hits              2118830                       # DTB read hits
system.switch_cpus.dtb.read_misses                 39                       # DTB read misses
system.switch_cpus.dtb.write_accesses         1414412                       # DTB write accesses
system.switch_cpus.dtb.write_acv                    0                       # DTB write access violations
system.switch_cpus.dtb.write_hits             1414357                       # DTB write hits
system.switch_cpus.dtb.write_misses                55                       # DTB write misses
system.switch_cpus.idle_fraction                    1                       # Percentage of idle cycles
system.switch_cpus.itb.data_accesses                0                       # DTB accesses
system.switch_cpus.itb.data_acv                     0                       # DTB access violations
system.switch_cpus.itb.data_hits                    0                       # DTB hits
system.switch_cpus.itb.data_misses                  0                       # DTB misses
system.switch_cpus.itb.fetch_accesses        10000112                       # ITB accesses
system.switch_cpus.itb.fetch_acv                    0                       # ITB acv
system.switch_cpus.itb.fetch_hits            10000095                       # ITB hits
system.switch_cpus.itb.fetch_misses                17                       # ITB misses
system.switch_cpus.itb.read_accesses                0                       # DTB read accesses
system.switch_cpus.itb.read_acv                     0                       # DTB read access violations
system.switch_cpus.itb.read_hits                    0                       # DTB read hits
system.switch_cpus.itb.read_misses                  0                       # DTB read misses
system.switch_cpus.itb.write_accesses               0                       # DTB write accesses
system.switch_cpus.itb.write_acv                    0                       # DTB write access violations
system.switch_cpus.itb.write_hits                   0                       # DTB write hits
system.switch_cpus.itb.write_misses                 0                       # DTB write misses
system.switch_cpus.not_idle_fraction                0                       # Percentage of non-idle cycles
system.switch_cpus.numCycles                 30151205                       # number of cpu cycles simulated
system.switch_cpus.num_insts                 10000001                       # Number of instructions executed
system.switch_cpus.num_refs                   3723635                       # Number of memory references
system.switch_cpus_1.BPredUnit.BTBCorrect            0                       # Number of correct BTB predictions (this stat may not work properly.
system.switch_cpus_1.BPredUnit.BTBHits         265269                       # Number of BTB hits
system.switch_cpus_1.BPredUnit.BTBLookups       430728                       # Number of BTB lookups
system.switch_cpus_1.BPredUnit.RASInCorrect            7                       # Number of incorrect RAS predictions.
system.switch_cpus_1.BPredUnit.condIncorrect        40262                       # Number of conditional branches incorrect
system.switch_cpus_1.BPredUnit.condPredicted       493863                       # Number of conditional branches predicted
system.switch_cpus_1.BPredUnit.lookups         511216                       # Number of BP lookups
system.switch_cpus_1.BPredUnit.usedRAS           5831                       # Number of times the RAS was used to get a target.
system.switch_cpus_1.commit.COM:branches       363562                       # Number of branches committed
system.switch_cpus_1.commit.COM:bw_lim_events       372469                       # number cycles where commit BW limit reached
system.switch_cpus_1.commit.COM:bw_limited            0                       # number of insts not committed due to BW limits
system.switch_cpus_1.commit.COM:committed_per_cycle::samples      6294109                       # Number of insts commited each cycle
system.switch_cpus_1.commit.COM:committed_per_cycle::mean     1.615087                       # Number of insts commited each cycle
system.switch_cpus_1.commit.COM:committed_per_cycle::stdev     2.380679                       # Number of insts commited each cycle
system.switch_cpus_1.commit.COM:committed_per_cycle::underflows            0      0.00%      0.00% # Number of insts commited each cycle
system.switch_cpus_1.commit.COM:committed_per_cycle::0      3344970     53.14%     53.14% # Number of insts commited each cycle
system.switch_cpus_1.commit.COM:committed_per_cycle::1       903631     14.36%     67.50% # Number of insts commited each cycle
system.switch_cpus_1.commit.COM:committed_per_cycle::2       415840      6.61%     74.11% # Number of insts commited each cycle
system.switch_cpus_1.commit.COM:committed_per_cycle::3       402518      6.40%     80.50% # Number of insts commited each cycle
system.switch_cpus_1.commit.COM:committed_per_cycle::4       403066      6.40%     86.91% # Number of insts commited each cycle
system.switch_cpus_1.commit.COM:committed_per_cycle::5       191773      3.05%     89.95% # Number of insts commited each cycle
system.switch_cpus_1.commit.COM:committed_per_cycle::6       147108      2.34%     92.29% # Number of insts commited each cycle
system.switch_cpus_1.commit.COM:committed_per_cycle::7       112734      1.79%     94.08% # Number of insts commited each cycle
system.switch_cpus_1.commit.COM:committed_per_cycle::8       372469      5.92%    100.00% # Number of insts commited each cycle
system.switch_cpus_1.commit.COM:committed_per_cycle::overflows            0      0.00%    100.00% # Number of insts commited each cycle
system.switch_cpus_1.commit.COM:committed_per_cycle::min_value            0                       # Number of insts commited each cycle
system.switch_cpus_1.commit.COM:committed_per_cycle::max_value            8                       # Number of insts commited each cycle
system.switch_cpus_1.commit.COM:committed_per_cycle::total      6294109                       # Number of insts commited each cycle
system.switch_cpus_1.commit.COM:count        10165532                       # Number of instructions committed
system.switch_cpus_1.commit.COM:loads         2313029                       # Number of loads committed
system.switch_cpus_1.commit.COM:membars             0                       # Number of memory barriers committed
system.switch_cpus_1.commit.COM:refs          3782914                       # Number of memory references committed
system.switch_cpus_1.commit.COM:swp_count            0                       # Number of s/w prefetches committed
system.switch_cpus_1.commit.branchMispredicts        40233                       # The number of times a branch was mispredicted
system.switch_cpus_1.commit.commitCommittedInsts     10165532                       # The number of committed instructions
system.switch_cpus_1.commit.commitSquashedInsts      1324080                       # The number of squashed insts skipped by commit
system.switch_cpus_1.committedInsts          10000007                       # Number of Instructions Simulated
system.switch_cpus_1.committedInsts_total     10000007                       # Number of Instructions Simulated
system.switch_cpus_1.cpi                     0.671796                       # CPI: Cycles Per Instruction
system.switch_cpus_1.cpi_total               0.671796                       # CPI: Total CPI of All Threads
system.switch_cpus_1.decode.DECODE:BlockedCycles       980401                       # Number of cycles decode is blocked
system.switch_cpus_1.decode.DECODE:BranchMispred           42                       # Number of times decode detected a branch misprediction
system.switch_cpus_1.decode.DECODE:BranchResolved        11473                       # Number of times decode resolved a branch
system.switch_cpus_1.decode.DECODE:DecodedInsts     13429614                       # Number of instructions handled by decode
system.switch_cpus_1.decode.DECODE:IdleCycles      3379129                       # Number of cycles decode is idle
system.switch_cpus_1.decode.DECODE:RunCycles      1922555                       # Number of cycles decode is running
system.switch_cpus_1.decode.DECODE:SquashCycles       252128                       # Number of cycles decode is squashing
system.switch_cpus_1.decode.DECODE:SquashedInsts           83                       # Number of squashed instructions handled by decode
system.switch_cpus_1.decode.DECODE:UnblockCycles        12023                       # Number of cycles decode is unblocking
system.switch_cpus_1.dtb.data_accesses        4079947                       # DTB accesses
system.switch_cpus_1.dtb.data_acv                   0                       # DTB access violations
system.switch_cpus_1.dtb.data_hits            4078311                       # DTB hits
system.switch_cpus_1.dtb.data_misses             1636                       # DTB misses
system.switch_cpus_1.dtb.fetch_accesses             0                       # ITB accesses
system.switch_cpus_1.dtb.fetch_acv                  0                       # ITB acv
system.switch_cpus_1.dtb.fetch_hits                 0                       # ITB hits
system.switch_cpus_1.dtb.fetch_misses               0                       # ITB misses
system.switch_cpus_1.dtb.read_accesses        2490571                       # DTB read accesses
system.switch_cpus_1.dtb.read_acv                   0                       # DTB read access violations
system.switch_cpus_1.dtb.read_hits            2490305                       # DTB read hits
system.switch_cpus_1.dtb.read_misses              266                       # DTB read misses
system.switch_cpus_1.dtb.write_accesses       1589376                       # DTB write accesses
system.switch_cpus_1.dtb.write_acv                  0                       # DTB write access violations
system.switch_cpus_1.dtb.write_hits           1588006                       # DTB write hits
system.switch_cpus_1.dtb.write_misses            1370                       # DTB write misses
system.switch_cpus_1.fetch.Branches            511216                       # Number of branches that fetch encountered
system.switch_cpus_1.fetch.CacheLines         1271777                       # Number of cache lines fetched
system.switch_cpus_1.fetch.Cycles             3231726                       # Number of cycles fetch has run and was not squashing or blocked
system.switch_cpus_1.fetch.IcacheSquashes        60709                       # Number of outstanding Icache misses that were squashed
system.switch_cpus_1.fetch.Insts             13603216                       # Number of instructions fetch has processed
system.switch_cpus_1.fetch.SquashCycles        165530                       # Number of cycles fetch has spent squashing
system.switch_cpus_1.fetch.branchRate        0.076097                       # Number of branch fetches per cycle
system.switch_cpus_1.fetch.icacheStallCycles      1271777                       # Number of cycles fetch is stalled on an Icache miss
system.switch_cpus_1.fetch.predictedBranches       271100                       # Number of branches that fetch has predicted taken
system.switch_cpus_1.fetch.rate              2.024901                       # Number of inst fetches per cycle
system.switch_cpus_1.fetch.rateDist::samples      6546237                       # Number of instructions fetched each cycle (Total)
system.switch_cpus_1.fetch.rateDist::mean     2.078021                       # Number of instructions fetched each cycle (Total)
system.switch_cpus_1.fetch.rateDist::stdev     3.357513                       # Number of instructions fetched each cycle (Total)
system.switch_cpus_1.fetch.rateDist::underflows            0      0.00%      0.00% # Number of instructions fetched each cycle (Total)
system.switch_cpus_1.fetch.rateDist::0        4586307     70.06%     70.06% # Number of instructions fetched each cycle (Total)
system.switch_cpus_1.fetch.rateDist::1          38153      0.58%     70.64% # Number of instructions fetched each cycle (Total)
system.switch_cpus_1.fetch.rateDist::2          76030      1.16%     71.80% # Number of instructions fetched each cycle (Total)
system.switch_cpus_1.fetch.rateDist::3          66406      1.01%     72.82% # Number of instructions fetched each cycle (Total)
system.switch_cpus_1.fetch.rateDist::4         174050      2.66%     75.48% # Number of instructions fetched each cycle (Total)
system.switch_cpus_1.fetch.rateDist::5          61774      0.94%     76.42% # Number of instructions fetched each cycle (Total)
system.switch_cpus_1.fetch.rateDist::6          49966      0.76%     77.18% # Number of instructions fetched each cycle (Total)
system.switch_cpus_1.fetch.rateDist::7          39489      0.60%     77.79% # Number of instructions fetched each cycle (Total)
system.switch_cpus_1.fetch.rateDist::8        1454062     22.21%    100.00% # Number of instructions fetched each cycle (Total)
system.switch_cpus_1.fetch.rateDist::overflows            0      0.00%    100.00% # Number of instructions fetched each cycle (Total)
system.switch_cpus_1.fetch.rateDist::min_value            0                       # Number of instructions fetched each cycle (Total)
system.switch_cpus_1.fetch.rateDist::max_value            8                       # Number of instructions fetched each cycle (Total)
system.switch_cpus_1.fetch.rateDist::total      6546237                       # Number of instructions fetched each cycle (Total)
system.switch_cpus_1.idleCycles                171728                       # Total number of cycles that the CPU has spent unscheduled due to idling
system.switch_cpus_1.iew.EXEC:branches         379699                       # Number of branches executed
system.switch_cpus_1.iew.EXEC:nop              178866                       # number of nop insts executed
system.switch_cpus_1.iew.EXEC:rate           1.622707                       # Inst execution rate
system.switch_cpus_1.iew.EXEC:refs            4302546                       # number of memory reference insts executed
system.switch_cpus_1.iew.EXEC:stores          1639911                       # Number of stores executed
system.switch_cpus_1.iew.EXEC:swp                   0                       # number of swp insts executed
system.switch_cpus_1.iew.WB:consumers         7573152                       # num instructions consuming a value
system.switch_cpus_1.iew.WB:count            10567249                       # cumulative count of insts written-back
system.switch_cpus_1.iew.WB:fanout           0.753259                       # average fanout of values written-back
system.switch_cpus_1.iew.WB:penalized               0                       # number of instrctions required to write to 'other' IQ
system.switch_cpus_1.iew.WB:penalized_rate            0                       # fraction of instructions written-back that wrote to 'other' IQ
system.switch_cpus_1.iew.WB:producers         5704546                       # num instructions producing a value
system.switch_cpus_1.iew.WB:rate             1.572984                       # insts written-back per cycle
system.switch_cpus_1.iew.WB:sent             10572551                       # cumulative count of insts sent to commit
system.switch_cpus_1.iew.branchMispredicts        42251                       # Number of branch mispredicts detected at execute
system.switch_cpus_1.iew.iewBlockCycles         63565                       # Number of cycles IEW is blocking
system.switch_cpus_1.iew.iewDispLoadInsts      2737708                       # Number of dispatched load instructions
system.switch_cpus_1.iew.iewDispNonSpecInsts            0                       # Number of dispatched non-speculative instructions
system.switch_cpus_1.iew.iewDispSquashedInsts       449849                       # Number of squashed instructions skipped by dispatch
system.switch_cpus_1.iew.iewDispStoreInsts      1830545                       # Number of dispatched store instructions
system.switch_cpus_1.iew.iewDispatchedInsts     11491898                       # Number of instructions dispatched to IQ
system.switch_cpus_1.iew.iewExecLoadInsts      2662635                       # Number of load instructions executed
system.switch_cpus_1.iew.iewExecSquashedInsts       126146                       # Number of squashed instructions skipped in execute
system.switch_cpus_1.iew.iewExecutedInsts     10901291                       # Number of executed instructions
system.switch_cpus_1.iew.iewIQFullEvents         1571                       # Number of times the IQ has become full, causing a stall
system.switch_cpus_1.iew.iewIdleCycles              0                       # Number of cycles IEW is idle
system.switch_cpus_1.iew.iewLSQFullEvents          203                       # Number of times the LSQ has become full, causing a stall
system.switch_cpus_1.iew.iewSquashCycles       252128                       # Number of cycles IEW is squashing
system.switch_cpus_1.iew.iewUnblockCycles         4635                       # Number of cycles IEW is unblocking
system.switch_cpus_1.iew.lsq.thread.0.blockedLoads            0                       # Number of blocked loads due to partial load-store forwarding
system.switch_cpus_1.iew.lsq.thread.0.cacheBlocked       321873                       # Number of times an access to memory failed due to the cache being blocked
system.switch_cpus_1.iew.lsq.thread.0.forwLoads        36781                       # Number of loads that had data forwarded from stores
system.switch_cpus_1.iew.lsq.thread.0.ignoredResponses            7                       # Number of memory responses ignored because the instruction is squashed
system.switch_cpus_1.iew.lsq.thread.0.invAddrLoads            0                       # Number of loads ignored due to an invalid address
system.switch_cpus_1.iew.lsq.thread.0.invAddrSwpfs            0                       # Number of software prefetches ignored due to an invalid address
system.switch_cpus_1.iew.lsq.thread.0.memOrderViolation         3167                       # Number of memory ordering violations
system.switch_cpus_1.iew.lsq.thread.0.rescheduledLoads            0                       # Number of loads that were rescheduled
system.switch_cpus_1.iew.lsq.thread.0.squashedLoads       424655                       # Number of loads squashed
system.switch_cpus_1.iew.lsq.thread.0.squashedStores       360649                       # Number of stores squashed
system.switch_cpus_1.iew.memOrderViolationEvents         3167                       # Number of memory order violations
system.switch_cpus_1.iew.predictedNotTakenIncorrect         3478                       # Number of branches that were predicted not taken incorrectly
system.switch_cpus_1.iew.predictedTakenIncorrect        38773                       # Number of branches that were predicted taken incorrectly
system.switch_cpus_1.ipc                     1.488547                       # IPC: Instructions Per Cycle
system.switch_cpus_1.ipc_total               1.488547                       # IPC: Total IPC of All Threads
system.switch_cpus_1.iq.ISSUE:FU_type_0::No_OpClass            0      0.00%      0.00% # Type of FU issued
system.switch_cpus_1.iq.ISSUE:FU_type_0::IntAlu      4083229     37.03%     37.03% # Type of FU issued
system.switch_cpus_1.iq.ISSUE:FU_type_0::IntMult       388676      3.52%     40.55% # Type of FU issued
system.switch_cpus_1.iq.ISSUE:FU_type_0::IntDiv            0      0.00%     40.55% # Type of FU issued
system.switch_cpus_1.iq.ISSUE:FU_type_0::FloatAdd      1331346     12.07%     52.63% # Type of FU issued
system.switch_cpus_1.iq.ISSUE:FU_type_0::FloatCmp            0      0.00%     52.63% # Type of FU issued
system.switch_cpus_1.iq.ISSUE:FU_type_0::FloatCvt        18102      0.16%     52.79% # Type of FU issued
system.switch_cpus_1.iq.ISSUE:FU_type_0::FloatMult       851276      7.72%     60.51% # Type of FU issued
system.switch_cpus_1.iq.ISSUE:FU_type_0::FloatDiv         6162      0.06%     60.57% # Type of FU issued
system.switch_cpus_1.iq.ISSUE:FU_type_0::FloatSqrt            0      0.00%     60.57% # Type of FU issued
system.switch_cpus_1.iq.ISSUE:FU_type_0::MemRead      2691439     24.41%     84.97% # Type of FU issued
system.switch_cpus_1.iq.ISSUE:FU_type_0::MemWrite      1657208     15.03%    100.00% # Type of FU issued
system.switch_cpus_1.iq.ISSUE:FU_type_0::IprAccess            0      0.00%    100.00% # Type of FU issued
system.switch_cpus_1.iq.ISSUE:FU_type_0::InstPrefetch            0      0.00%    100.00% # Type of FU issued
system.switch_cpus_1.iq.ISSUE:FU_type_0::total     11027438                       # Type of FU issued
system.switch_cpus_1.iq.ISSUE:fu_busy_cnt       390517                       # FU busy when requested
system.switch_cpus_1.iq.ISSUE:fu_busy_rate     0.035413                       # FU busy rate (busy events/executed inst)
system.switch_cpus_1.iq.ISSUE:fu_full::No_OpClass            0      0.00%      0.00% # attempts to use FU when none available
system.switch_cpus_1.iq.ISSUE:fu_full::IntAlu        51549     13.20%     13.20% # attempts to use FU when none available
system.switch_cpus_1.iq.ISSUE:fu_full::IntMult        52744     13.51%     26.71% # attempts to use FU when none available
system.switch_cpus_1.iq.ISSUE:fu_full::IntDiv            0      0.00%     26.71% # attempts to use FU when none available
system.switch_cpus_1.iq.ISSUE:fu_full::FloatAdd        16473      4.22%     30.92% # attempts to use FU when none available
system.switch_cpus_1.iq.ISSUE:fu_full::FloatCmp            0      0.00%     30.92% # attempts to use FU when none available
system.switch_cpus_1.iq.ISSUE:fu_full::FloatCvt            0      0.00%     30.92% # attempts to use FU when none available
system.switch_cpus_1.iq.ISSUE:fu_full::FloatMult        96875     24.81%     55.73% # attempts to use FU when none available
system.switch_cpus_1.iq.ISSUE:fu_full::FloatDiv            0      0.00%     55.73% # attempts to use FU when none available
system.switch_cpus_1.iq.ISSUE:fu_full::FloatSqrt            0      0.00%     55.73% # attempts to use FU when none available
system.switch_cpus_1.iq.ISSUE:fu_full::MemRead       120970     30.98%     86.71% # attempts to use FU when none available
system.switch_cpus_1.iq.ISSUE:fu_full::MemWrite        51906     13.29%    100.00% # attempts to use FU when none available
system.switch_cpus_1.iq.ISSUE:fu_full::IprAccess            0      0.00%    100.00% # attempts to use FU when none available
system.switch_cpus_1.iq.ISSUE:fu_full::InstPrefetch            0      0.00%    100.00% # attempts to use FU when none available
system.switch_cpus_1.iq.ISSUE:issued_per_cycle::samples      6546237                       # Number of insts issued each cycle
system.switch_cpus_1.iq.ISSUE:issued_per_cycle::mean     1.684546                       # Number of insts issued each cycle
system.switch_cpus_1.iq.ISSUE:issued_per_cycle::stdev     2.012075                       # Number of insts issued each cycle
system.switch_cpus_1.iq.ISSUE:issued_per_cycle::underflows            0      0.00%      0.00% # Number of insts issued each cycle
system.switch_cpus_1.iq.ISSUE:issued_per_cycle::0      2895212     44.23%     44.23% # Number of insts issued each cycle
system.switch_cpus_1.iq.ISSUE:issued_per_cycle::1      1001256     15.30%     59.52% # Number of insts issued each cycle
system.switch_cpus_1.iq.ISSUE:issued_per_cycle::2       669093     10.22%     69.74% # Number of insts issued each cycle
system.switch_cpus_1.iq.ISSUE:issued_per_cycle::3       587933      8.98%     78.72% # Number of insts issued each cycle
system.switch_cpus_1.iq.ISSUE:issued_per_cycle::4       631588      9.65%     88.37% # Number of insts issued each cycle
system.switch_cpus_1.iq.ISSUE:issued_per_cycle::5       358065      5.47%     93.84% # Number of insts issued each cycle
system.switch_cpus_1.iq.ISSUE:issued_per_cycle::6       256250      3.91%     97.76% # Number of insts issued each cycle
system.switch_cpus_1.iq.ISSUE:issued_per_cycle::7       104700      1.60%     99.36% # Number of insts issued each cycle
system.switch_cpus_1.iq.ISSUE:issued_per_cycle::8        42140      0.64%    100.00% # Number of insts issued each cycle
system.switch_cpus_1.iq.ISSUE:issued_per_cycle::overflows            0      0.00%    100.00% # Number of insts issued each cycle
system.switch_cpus_1.iq.ISSUE:issued_per_cycle::min_value            0                       # Number of insts issued each cycle
system.switch_cpus_1.iq.ISSUE:issued_per_cycle::max_value            8                       # Number of insts issued each cycle
system.switch_cpus_1.iq.ISSUE:issued_per_cycle::total      6546237                       # Number of insts issued each cycle
system.switch_cpus_1.iq.ISSUE:rate           1.641485                       # Inst issue rate
system.switch_cpus_1.iq.iqInstsAdded         11313032                       # Number of instructions added to the IQ (excludes non-spec)
system.switch_cpus_1.iq.iqInstsIssued        11027438                       # Number of instructions issued
system.switch_cpus_1.iq.iqSquashedInstsExamined      1312842                       # Number of squashed instructions iterated over during squash; mainly for profiling
system.switch_cpus_1.iq.iqSquashedInstsIssued        37498                       # Number of squashed instructions issued
system.switch_cpus_1.iq.iqSquashedOperandsExamined       875850                       # Number of squashed operands that are examined and possibly removed from graph
system.switch_cpus_1.itb.data_accesses              0                       # DTB accesses
system.switch_cpus_1.itb.data_acv                   0                       # DTB access violations
system.switch_cpus_1.itb.data_hits                  0                       # DTB hits
system.switch_cpus_1.itb.data_misses                0                       # DTB misses
system.switch_cpus_1.itb.fetch_accesses       1271799                       # ITB accesses
system.switch_cpus_1.itb.fetch_acv                  0                       # ITB acv
system.switch_cpus_1.itb.fetch_hits           1271777                       # ITB hits
system.switch_cpus_1.itb.fetch_misses              22                       # ITB misses
system.switch_cpus_1.itb.read_accesses              0                       # DTB read accesses
system.switch_cpus_1.itb.read_acv                   0                       # DTB read access violations
system.switch_cpus_1.itb.read_hits                  0                       # DTB read hits
system.switch_cpus_1.itb.read_misses                0                       # DTB read misses
system.switch_cpus_1.itb.write_accesses             0                       # DTB write accesses
system.switch_cpus_1.itb.write_acv                  0                       # DTB write access violations
system.switch_cpus_1.itb.write_hits                 0                       # DTB write hits
system.switch_cpus_1.itb.write_misses               0                       # DTB write misses
system.switch_cpus_1.memDep0.conflictingLoads       610915                       # Number of conflicting loads.
system.switch_cpus_1.memDep0.conflictingStores       448580                       # Number of conflicting stores.
system.switch_cpus_1.memDep0.insertedLoads      2737708                       # Number of loads inserted to the mem dependence unit.
system.switch_cpus_1.memDep0.insertedStores      1830545                       # Number of stores inserted to the mem dependence unit.
system.switch_cpus_1.numCycles                6717965                       # number of cpu cycles simulated
system.switch_cpus_1.rename.RENAME:BlockCycles       486948                       # Number of cycles rename is blocking
system.switch_cpus_1.rename.RENAME:CommittedMaps      8012480                       # Number of HB maps that are committed
system.switch_cpus_1.rename.RENAME:IQFullEvents        58218                       # Number of times rename has blocked due to IQ full
system.switch_cpus_1.rename.RENAME:IdleCycles      3503703                       # Number of cycles rename is idle
system.switch_cpus_1.rename.RENAME:LSQFullEvents       435705                       # Number of times rename has blocked due to LSQ full
system.switch_cpus_1.rename.RENAME:ROBFullEvents          142                       # Number of times rename has blocked due to ROB full
system.switch_cpus_1.rename.RENAME:RenameLookups     19652888                       # Number of register rename lookups that rename has made
system.switch_cpus_1.rename.RENAME:RenamedInsts     12984200                       # Number of instructions processed by rename
system.switch_cpus_1.rename.RENAME:RenamedOperands      9865847                       # Number of destination operands rename has renamed
system.switch_cpus_1.rename.RENAME:RunCycles      1806359                       # Number of cycles rename is running
system.switch_cpus_1.rename.RENAME:SquashCycles       252128                       # Number of cycles rename is squashing
system.switch_cpus_1.rename.RENAME:UnblockCycles       497098                       # Number of cycles rename is unblocking
system.switch_cpus_1.rename.RENAME:UndoneMaps      1853310                       # Number of HB maps that are undone due to squashing
system.switch_cpus_1.rename.RENAME:serializeStallCycles            0                       # count of cycles rename stalled for serializing inst
system.switch_cpus_1.rename.RENAME:serializingInsts            0                       # count of serializing insts renamed
system.switch_cpus_1.rename.RENAME:skidInsts       957706                       # count of insts added to the skid buffer
system.switch_cpus_1.rename.RENAME:tempSerializingInsts            0                       # count of temporary serializing insts renamed
system.switch_cpus_1.timesIdled                 28313                       # Number of times that the entire CPU went into an idle state and unscheduled itself

---------- End Simulation Statistics   ----------
