
---------- Begin Simulation Statistics ----------
host_inst_rate                                 317916                       # Simulator instruction rate (inst/s)
host_mem_usage                                 392660                       # Number of bytes of host memory used
host_seconds                                    62.91                       # Real time elapsed on the host
host_tick_rate                              953932157                       # Simulator tick rate (ticks/s)
sim_freq                                 1000000000000                       # Frequency of simulated ticks
sim_insts                                    20000008                       # Number of instructions simulated
sim_seconds                                  0.060012                       # Number of seconds simulated
sim_ticks                                 60011965500                       # Number of ticks simulated
system.cpu.dcache.ReadReq_accesses            7242075                       # number of ReadReq accesses(hits+misses)
system.cpu.dcache.ReadReq_avg_miss_latency 66817.383094                       # average ReadReq miss latency
system.cpu.dcache.ReadReq_avg_mshr_miss_latency 68089.835284                       # average ReadReq mshr miss latency
system.cpu.dcache.ReadReq_hits                6148570                       # number of ReadReq hits
system.cpu.dcache.ReadReq_miss_latency    73065142500                       # number of ReadReq miss cycles
system.cpu.dcache.ReadReq_miss_rate          0.150993                       # miss rate for ReadReq accesses
system.cpu.dcache.ReadReq_misses              1093505                       # number of ReadReq misses
system.cpu.dcache.ReadReq_mshr_hits            499695                       # number of ReadReq MSHR hits
system.cpu.dcache.ReadReq_mshr_miss_latency  40432357000                       # number of ReadReq MSHR miss cycles
system.cpu.dcache.ReadReq_mshr_miss_rate     0.081994                       # mshr miss rate for ReadReq accesses
system.cpu.dcache.ReadReq_mshr_misses          593809                       # number of ReadReq MSHR misses
system.cpu.dcache.WriteReq_accesses           1244859                       # number of WriteReq accesses(hits+misses)
system.cpu.dcache.WriteReq_avg_miss_latency 66547.790072                       # average WriteReq miss latency
system.cpu.dcache.WriteReq_avg_mshr_miss_latency 64366.350775                       # average WriteReq mshr miss latency
system.cpu.dcache.WriteReq_hits                841950                       # number of WriteReq hits
system.cpu.dcache.WriteReq_miss_latency   26812703550                       # number of WriteReq miss cycles
system.cpu.dcache.WriteReq_miss_rate         0.323658                       # miss rate for WriteReq accesses
system.cpu.dcache.WriteReq_misses              402909                       # number of WriteReq misses
system.cpu.dcache.WriteReq_mshr_hits           154505                       # number of WriteReq MSHR hits
system.cpu.dcache.WriteReq_mshr_miss_latency  15988858998                       # number of WriteReq MSHR miss cycles
system.cpu.dcache.WriteReq_mshr_miss_rate     0.199544                       # mshr miss rate for WriteReq accesses
system.cpu.dcache.WriteReq_mshr_misses         248404                       # number of WriteReq MSHR misses
system.cpu.dcache.avg_blocked_cycles::no_mshrs     no_value                       # average number of cycles each access was blocked
system.cpu.dcache.avg_blocked_cycles::no_targets 47539.336293                       # average number of cycles each access was blocked
system.cpu.dcache.avg_refs                  12.585030                       # Average number of references to valid blocks.
system.cpu.dcache.blocked::no_mshrs                 0                       # number of cycles access was blocked
system.cpu.dcache.blocked::no_targets           91786                       # number of cycles access was blocked
system.cpu.dcache.blocked_cycles::no_mshrs            0                       # number of cycles access was blocked
system.cpu.dcache.blocked_cycles::no_targets   4363445521                       # number of cycles access was blocked
system.cpu.dcache.cache_copies                      0                       # number of cache copies performed
system.cpu.dcache.demand_accesses             8486934                       # number of demand (read+write) accesses
system.cpu.dcache.demand_avg_miss_latency 66744.795257                       # average overall miss latency
system.cpu.dcache.demand_avg_mshr_miss_latency 66991.623257                       # average overall mshr miss latency
system.cpu.dcache.demand_hits                 6990520                       # number of demand (read+write) hits
system.cpu.dcache.demand_miss_latency     99877846050                       # number of demand (read+write) miss cycles
system.cpu.dcache.demand_miss_rate           0.176320                       # miss rate for demand accesses
system.cpu.dcache.demand_misses               1496414                       # number of demand (read+write) misses
system.cpu.dcache.demand_mshr_hits             654200                       # number of demand (read+write) MSHR hits
system.cpu.dcache.demand_mshr_miss_latency  56421215998                       # number of demand (read+write) MSHR miss cycles
system.cpu.dcache.demand_mshr_miss_rate      0.099236                       # mshr miss rate for demand accesses
system.cpu.dcache.demand_mshr_misses           842213                       # number of demand (read+write) MSHR misses
system.cpu.dcache.fast_writes                       0                       # number of fast writes performed
system.cpu.dcache.mshr_cap_events                   0                       # number of times MSHR cap was activated
system.cpu.dcache.no_allocate_misses                0                       # Number of misses that were no-allocate
system.cpu.dcache.occ_%::0                   0.997622                       # Average percentage of cache occupancy
system.cpu.dcache.occ_blocks::0           1021.565077                       # Average occupied blocks per context
system.cpu.dcache.overall_accesses            8486934                       # number of overall (read+write) accesses
system.cpu.dcache.overall_avg_miss_latency 66744.795257                       # average overall miss latency
system.cpu.dcache.overall_avg_mshr_miss_latency 66991.623257                       # average overall mshr miss latency
system.cpu.dcache.overall_avg_mshr_uncacheable_latency     no_value                       # average overall mshr uncacheable latency
system.cpu.dcache.overall_hits                6990520                       # number of overall hits
system.cpu.dcache.overall_miss_latency    99877846050                       # number of overall miss cycles
system.cpu.dcache.overall_miss_rate          0.176320                       # miss rate for overall accesses
system.cpu.dcache.overall_misses              1496414                       # number of overall misses
system.cpu.dcache.overall_mshr_hits            654200                       # number of overall MSHR hits
system.cpu.dcache.overall_mshr_miss_latency  56421215998                       # number of overall MSHR miss cycles
system.cpu.dcache.overall_mshr_miss_rate     0.099236                       # mshr miss rate for overall accesses
system.cpu.dcache.overall_mshr_misses          842213                       # number of overall MSHR misses
system.cpu.dcache.overall_mshr_uncacheable_latency            0                       # number of overall MSHR uncacheable cycles
system.cpu.dcache.overall_mshr_uncacheable_misses            0                       # number of overall MSHR uncacheable misses
system.cpu.dcache.prefetch_accuracy          no_value                       # ratio of good prefetches to total prefetches
system.cpu.dcache.prefetch_hits                     0                       # number of prefetched blocks that were accessed
system.cpu.dcache.replacements                 592797                       # number of replacements
system.cpu.dcache.sampled_refs                 593821                       # Sample count of references to valid blocks.
system.cpu.dcache.soft_prefetch_mshr_full            0                       # number of mshr full events for SW prefetching instrutions
system.cpu.dcache.tagsinuse               1021.565077                       # Cycle average of tags in use
system.cpu.dcache.total_refs                  7473255                       # Total number of references to valid blocks.
system.cpu.dcache.warmup_cycle           501368305000                       # Cycle when the warmup percentage was hit.
system.cpu.dcache.writebacks                   248402                       # number of writebacks
system.cpu.dtb.data_accesses                        1                       # DTB accesses
system.cpu.dtb.data_acv                             0                       # DTB access violations
system.cpu.dtb.data_hits                            1                       # DTB hits
system.cpu.dtb.data_misses                          0                       # DTB misses
system.cpu.dtb.fetch_accesses                       0                       # ITB accesses
system.cpu.dtb.fetch_acv                            0                       # ITB acv
system.cpu.dtb.fetch_hits                           0                       # ITB hits
system.cpu.dtb.fetch_misses                         0                       # ITB misses
system.cpu.dtb.read_accesses                        1                       # DTB read accesses
system.cpu.dtb.read_acv                             0                       # DTB read access violations
system.cpu.dtb.read_hits                            1                       # DTB read hits
system.cpu.dtb.read_misses                          0                       # DTB read misses
system.cpu.dtb.write_accesses                       0                       # DTB write accesses
system.cpu.dtb.write_acv                            0                       # DTB write access violations
system.cpu.dtb.write_hits                           0                       # DTB write hits
system.cpu.dtb.write_misses                         0                       # DTB write misses
system.cpu.icache.ReadReq_accesses           13093026                       # number of ReadReq accesses(hits+misses)
system.cpu.icache.ReadReq_avg_miss_latency 66363.905325                       # average ReadReq miss latency
system.cpu.icache.ReadReq_avg_mshr_miss_latency 64461.783439                       # average ReadReq mshr miss latency
system.cpu.icache.ReadReq_hits               13092350                       # number of ReadReq hits
system.cpu.icache.ReadReq_miss_latency       44862000                       # number of ReadReq miss cycles
system.cpu.icache.ReadReq_miss_rate          0.000052                       # miss rate for ReadReq accesses
system.cpu.icache.ReadReq_misses                  676                       # number of ReadReq misses
system.cpu.icache.ReadReq_mshr_hits                46                       # number of ReadReq MSHR hits
system.cpu.icache.ReadReq_mshr_miss_latency     40482000                       # number of ReadReq MSHR miss cycles
system.cpu.icache.ReadReq_mshr_miss_rate     0.000048                       # mshr miss rate for ReadReq accesses
system.cpu.icache.ReadReq_mshr_misses             628                       # number of ReadReq MSHR misses
system.cpu.icache.avg_blocked_cycles::no_mshrs     no_value                       # average number of cycles each access was blocked
system.cpu.icache.avg_blocked_cycles::no_targets 49916.666667                       # average number of cycles each access was blocked
system.cpu.icache.avg_refs               20781.507937                       # Average number of references to valid blocks.
system.cpu.icache.blocked::no_mshrs                 0                       # number of cycles access was blocked
system.cpu.icache.blocked::no_targets               6                       # number of cycles access was blocked
system.cpu.icache.blocked_cycles::no_mshrs            0                       # number of cycles access was blocked
system.cpu.icache.blocked_cycles::no_targets       299500                       # number of cycles access was blocked
system.cpu.icache.cache_copies                      0                       # number of cache copies performed
system.cpu.icache.demand_accesses            13093026                       # number of demand (read+write) accesses
system.cpu.icache.demand_avg_miss_latency 66363.905325                       # average overall miss latency
system.cpu.icache.demand_avg_mshr_miss_latency 64461.783439                       # average overall mshr miss latency
system.cpu.icache.demand_hits                13092350                       # number of demand (read+write) hits
system.cpu.icache.demand_miss_latency        44862000                       # number of demand (read+write) miss cycles
system.cpu.icache.demand_miss_rate           0.000052                       # miss rate for demand accesses
system.cpu.icache.demand_misses                   676                       # number of demand (read+write) misses
system.cpu.icache.demand_mshr_hits                 46                       # number of demand (read+write) MSHR hits
system.cpu.icache.demand_mshr_miss_latency     40482000                       # number of demand (read+write) MSHR miss cycles
system.cpu.icache.demand_mshr_miss_rate      0.000048                       # mshr miss rate for demand accesses
system.cpu.icache.demand_mshr_misses              628                       # number of demand (read+write) MSHR misses
system.cpu.icache.fast_writes                       0                       # number of fast writes performed
system.cpu.icache.mshr_cap_events                   0                       # number of times MSHR cap was activated
system.cpu.icache.no_allocate_misses                0                       # Number of misses that were no-allocate
system.cpu.icache.occ_%::0                   0.709813                       # Average percentage of cache occupancy
system.cpu.icache.occ_blocks::0            363.424137                       # Average occupied blocks per context
system.cpu.icache.overall_accesses           13093026                       # number of overall (read+write) accesses
system.cpu.icache.overall_avg_miss_latency 66363.905325                       # average overall miss latency
system.cpu.icache.overall_avg_mshr_miss_latency 64461.783439                       # average overall mshr miss latency
system.cpu.icache.overall_avg_mshr_uncacheable_latency     no_value                       # average overall mshr uncacheable latency
system.cpu.icache.overall_hits               13092350                       # number of overall hits
system.cpu.icache.overall_miss_latency       44862000                       # number of overall miss cycles
system.cpu.icache.overall_miss_rate          0.000052                       # miss rate for overall accesses
system.cpu.icache.overall_misses                  676                       # number of overall misses
system.cpu.icache.overall_mshr_hits                46                       # number of overall MSHR hits
system.cpu.icache.overall_mshr_miss_latency     40482000                       # number of overall MSHR miss cycles
system.cpu.icache.overall_mshr_miss_rate     0.000048                       # mshr miss rate for overall accesses
system.cpu.icache.overall_mshr_misses             628                       # number of overall MSHR misses
system.cpu.icache.overall_mshr_uncacheable_latency            0                       # number of overall MSHR uncacheable cycles
system.cpu.icache.overall_mshr_uncacheable_misses            0                       # number of overall MSHR uncacheable misses
system.cpu.icache.prefetch_accuracy          no_value                       # ratio of good prefetches to total prefetches
system.cpu.icache.prefetch_hits                     0                       # number of prefetched blocks that were accessed
system.cpu.icache.replacements                    118                       # number of replacements
system.cpu.icache.sampled_refs                    630                       # Sample count of references to valid blocks.
system.cpu.icache.soft_prefetch_mshr_full            0                       # number of mshr full events for SW prefetching instrutions
system.cpu.icache.tagsinuse                363.424137                       # Cycle average of tags in use
system.cpu.icache.total_refs                 13092350                       # Total number of references to valid blocks.
system.cpu.icache.warmup_cycle           557855085000                       # Cycle when the warmup percentage was hit.
system.cpu.icache.writebacks                        0                       # number of writebacks
system.cpu.idle_fraction                            0                       # Percentage of idle cycles
system.cpu.itb.data_accesses                        0                       # DTB accesses
system.cpu.itb.data_acv                             0                       # DTB access violations
system.cpu.itb.data_hits                            0                       # DTB hits
system.cpu.itb.data_misses                          0                       # DTB misses
system.cpu.itb.fetch_accesses                       2                       # ITB accesses
system.cpu.itb.fetch_acv                            0                       # ITB acv
system.cpu.itb.fetch_hits                           2                       # ITB hits
system.cpu.itb.fetch_misses                         0                       # ITB misses
system.cpu.itb.read_accesses                        0                       # DTB read accesses
system.cpu.itb.read_acv                             0                       # DTB read access violations
system.cpu.itb.read_hits                            0                       # DTB read hits
system.cpu.itb.read_misses                          0                       # DTB read misses
system.cpu.itb.write_accesses                       0                       # DTB write accesses
system.cpu.itb.write_acv                            0                       # DTB write access violations
system.cpu.itb.write_hits                           0                       # DTB write hits
system.cpu.itb.write_misses                         0                       # DTB write misses
system.cpu.not_idle_fraction                        1                       # Percentage of non-idle cycles
system.cpu.numCycles                                2                       # number of cpu cycles simulated
system.cpu.num_insts                                2                       # Number of instructions executed
system.cpu.num_refs                                 1                       # Number of memory references
system.cpu.workload.PROG:num_syscalls               0                       # Number of system calls
system.l2.HardPFReq_avg_mshr_miss_latency 44447.647247                       # average HardPFReq mshr miss latency
system.l2.HardPFReq_mshr_miss_latency      5110146004                       # number of HardPFReq MSHR miss cycles
system.l2.HardPFReq_mshr_miss_rate                inf                       # mshr miss rate for HardPFReq accesses
system.l2.HardPFReq_mshr_misses                114970                       # number of HardPFReq MSHR misses
system.l2.ReadExReq_accesses                       11                       # number of ReadExReq accesses(hits+misses)
system.l2.ReadExReq_avg_miss_latency     69863.636364                       # average ReadExReq miss latency
system.l2.ReadExReq_avg_mshr_miss_latency        54500                       # average ReadExReq mshr miss latency
system.l2.ReadExReq_miss_latency               768500                       # number of ReadExReq miss cycles
system.l2.ReadExReq_miss_rate                       1                       # miss rate for ReadExReq accesses
system.l2.ReadExReq_misses                         11                       # number of ReadExReq misses
system.l2.ReadExReq_mshr_miss_latency          599500                       # number of ReadExReq MSHR miss cycles
system.l2.ReadExReq_mshr_miss_rate                  1                       # mshr miss rate for ReadExReq accesses
system.l2.ReadExReq_mshr_misses                    11                       # number of ReadExReq MSHR misses
system.l2.ReadReq_accesses                     594440                       # number of ReadReq accesses(hits+misses)
system.l2.ReadReq_avg_miss_latency       69181.954839                       # average ReadReq miss latency
system.l2.ReadReq_avg_mshr_miss_latency  54048.060250                       # average ReadReq mshr miss latency
system.l2.ReadReq_hits                          22669                       # number of ReadReq hits
system.l2.ReadReq_miss_latency            39556235500                       # number of ReadReq miss cycles
system.l2.ReadReq_miss_rate                  0.961865                       # miss rate for ReadReq accesses
system.l2.ReadReq_misses                       571771                       # number of ReadReq misses
system.l2.ReadReq_mshr_hits                      7185                       # number of ReadReq MSHR hits
system.l2.ReadReq_mshr_miss_latency       30514616000                       # number of ReadReq MSHR miss cycles
system.l2.ReadReq_mshr_miss_rate             0.949773                       # mshr miss rate for ReadReq accesses
system.l2.ReadReq_mshr_misses                  564583                       # number of ReadReq MSHR misses
system.l2.UpgradeReq_accesses                  248393                       # number of UpgradeReq accesses(hits+misses)
system.l2.UpgradeReq_avg_miss_latency    63333.014610                       # average UpgradeReq miss latency
system.l2.UpgradeReq_avg_mshr_miss_latency 47653.218911                       # average UpgradeReq mshr miss latency
system.l2.UpgradeReq_miss_latency         15731477498                       # number of UpgradeReq miss cycles
system.l2.UpgradeReq_miss_rate                      1                       # miss rate for UpgradeReq accesses
system.l2.UpgradeReq_misses                    248393                       # number of UpgradeReq misses
system.l2.UpgradeReq_mshr_miss_latency    11836726005                       # number of UpgradeReq MSHR miss cycles
system.l2.UpgradeReq_mshr_miss_rate                 1                       # mshr miss rate for UpgradeReq accesses
system.l2.UpgradeReq_mshr_misses               248393                       # number of UpgradeReq MSHR misses
system.l2.Writeback_accesses                   248402                       # number of Writeback accesses(hits+misses)
system.l2.Writeback_hits                       248402                       # number of Writeback hits
system.l2.avg_blocked_cycles::no_mshrs       no_value                       # average number of cycles each access was blocked
system.l2.avg_blocked_cycles::no_targets     no_value                       # average number of cycles each access was blocked
system.l2.avg_refs                           0.593755                       # Average number of references to valid blocks.
system.l2.blocked::no_mshrs                         0                       # number of cycles access was blocked
system.l2.blocked::no_targets                       0                       # number of cycles access was blocked
system.l2.blocked_cycles::no_mshrs                  0                       # number of cycles access was blocked
system.l2.blocked_cycles::no_targets                0                       # number of cycles access was blocked
system.l2.cache_copies                              0                       # number of cache copies performed
system.l2.demand_accesses                      594451                       # number of demand (read+write) accesses
system.l2.demand_avg_miss_latency        69181.967953                       # average overall miss latency
system.l2.demand_avg_mshr_miss_latency   54048.069055                       # average overall mshr miss latency
system.l2.demand_hits                           22669                       # number of demand (read+write) hits
system.l2.demand_miss_latency             39557004000                       # number of demand (read+write) miss cycles
system.l2.demand_miss_rate                   0.961866                       # miss rate for demand accesses
system.l2.demand_misses                        571782                       # number of demand (read+write) misses
system.l2.demand_mshr_hits                       7185                       # number of demand (read+write) MSHR hits
system.l2.demand_mshr_miss_latency        30515215500                       # number of demand (read+write) MSHR miss cycles
system.l2.demand_mshr_miss_rate              0.949774                       # mshr miss rate for demand accesses
system.l2.demand_mshr_misses                   564594                       # number of demand (read+write) MSHR misses
system.l2.fast_writes                               0                       # number of fast writes performed
system.l2.mshr_cap_events                           0                       # number of times MSHR cap was activated
system.l2.no_allocate_misses                        0                       # Number of misses that were no-allocate
system.l2.occ_%::0                           0.482384                       # Average percentage of cache occupancy
system.l2.occ_%::1                           0.193518                       # Average percentage of cache occupancy
system.l2.occ_blocks::0                   7903.379522                       # Average occupied blocks per context
system.l2.occ_blocks::1                   3170.592740                       # Average occupied blocks per context
system.l2.overall_accesses                     594451                       # number of overall (read+write) accesses
system.l2.overall_avg_miss_latency       69181.967953                       # average overall miss latency
system.l2.overall_avg_mshr_miss_latency  52423.850445                       # average overall mshr miss latency
system.l2.overall_avg_mshr_uncacheable_latency     no_value                       # average overall mshr uncacheable latency
system.l2.overall_hits                          22669                       # number of overall hits
system.l2.overall_miss_latency            39557004000                       # number of overall miss cycles
system.l2.overall_miss_rate                  0.961866                       # miss rate for overall accesses
system.l2.overall_misses                       571782                       # number of overall misses
system.l2.overall_mshr_hits                      7185                       # number of overall MSHR hits
system.l2.overall_mshr_miss_latency       35625361504                       # number of overall MSHR miss cycles
system.l2.overall_mshr_miss_rate             1.143179                       # mshr miss rate for overall accesses
system.l2.overall_mshr_misses                  679564                       # number of overall MSHR misses
system.l2.overall_mshr_uncacheable_latency            0                       # number of overall MSHR uncacheable cycles
system.l2.overall_mshr_uncacheable_misses            0                       # number of overall MSHR uncacheable misses
system.l2.prefetch_accuracy                  0.918257                       # ratio of good prefetches to total prefetches
system.l2.prefetch_hits                        105572                       # number of prefetched blocks that were accessed
system.l2.prefetcher.num_hwpf_already_in_prefetcher           72                       # number of hwpf that were already in the prefetch queue
system.l2.prefetcher.num_hwpf_evicted               0                       # number of hwpf removed due to no buffer left
system.l2.prefetcher.num_hwpf_identified       131052                       # number of hwpf identified
system.l2.prefetcher.num_hwpf_issued           114970                       # number of hwpf issued
system.l2.prefetcher.num_hwpf_removed_MSHR_hit        16010                       # number of hwpf removed because MSHR allocated
system.l2.prefetcher.num_hwpf_span_page             0                       # number of hwpf spanning a virtual page
system.l2.prefetcher.num_hwpf_squashed_from_miss            0                       # number of hwpf that got squashed due to a miss aborting calculation time
system.l2.replacements                         580086                       # number of replacements
system.l2.sampled_refs                         596470                       # Sample count of references to valid blocks.
system.l2.soft_prefetch_mshr_full                   0                       # number of mshr full events for SW prefetching instrutions
system.l2.tagsinuse                      11073.972262                       # Cycle average of tags in use
system.l2.total_refs                           354157                       # Total number of references to valid blocks.
system.l2.warmup_cycle                   559084210000                       # Cycle when the warmup percentage was hit.
system.l2.writebacks                           248402                       # number of writebacks
system.switch_cpus.dtb.data_accesses          4326978                       # DTB accesses
system.switch_cpus.dtb.data_acv                     0                       # DTB access violations
system.switch_cpus.dtb.data_hits              4306851                       # DTB hits
system.switch_cpus.dtb.data_misses              20127                       # DTB misses
system.switch_cpus.dtb.fetch_accesses               0                       # ITB accesses
system.switch_cpus.dtb.fetch_acv                    0                       # ITB acv
system.switch_cpus.dtb.fetch_hits                   0                       # ITB hits
system.switch_cpus.dtb.fetch_misses                 0                       # ITB misses
system.switch_cpus.dtb.read_accesses          3637064                       # DTB read accesses
system.switch_cpus.dtb.read_acv                     0                       # DTB read access violations
system.switch_cpus.dtb.read_hits              3616995                       # DTB read hits
system.switch_cpus.dtb.read_misses              20069                       # DTB read misses
system.switch_cpus.dtb.write_accesses          689914                       # DTB write accesses
system.switch_cpus.dtb.write_acv                    0                       # DTB write access violations
system.switch_cpus.dtb.write_hits              689856                       # DTB write hits
system.switch_cpus.dtb.write_misses                58                       # DTB write misses
system.switch_cpus.idle_fraction                    1                       # Percentage of idle cycles
system.switch_cpus.itb.data_accesses                0                       # DTB accesses
system.switch_cpus.itb.data_acv                     0                       # DTB access violations
system.switch_cpus.itb.data_hits                    0                       # DTB hits
system.switch_cpus.itb.data_misses                  0                       # DTB misses
system.switch_cpus.itb.fetch_accesses        10020134                       # ITB accesses
system.switch_cpus.itb.fetch_acv                    0                       # ITB acv
system.switch_cpus.itb.fetch_hits            10020129                       # ITB hits
system.switch_cpus.itb.fetch_misses                 5                       # ITB misses
system.switch_cpus.itb.read_accesses                0                       # DTB read accesses
system.switch_cpus.itb.read_acv                     0                       # DTB read access violations
system.switch_cpus.itb.read_hits                    0                       # DTB read hits
system.switch_cpus.itb.read_misses                  0                       # DTB read misses
system.switch_cpus.itb.write_accesses               0                       # DTB write accesses
system.switch_cpus.itb.write_acv                    0                       # DTB write access violations
system.switch_cpus.itb.write_hits                   0                       # DTB write hits
system.switch_cpus.itb.write_misses                 0                       # DTB write misses
system.switch_cpus.not_idle_fraction                0                       # Percentage of non-idle cycles
system.switch_cpus.numCycles                 96503139                       # number of cpu cycles simulated
system.switch_cpus.num_insts                 10000001                       # Number of instructions executed
system.switch_cpus.num_refs                   4821338                       # Number of memory references
system.switch_cpus_1.BPredUnit.BTBCorrect            0                       # Number of correct BTB predictions (this stat may not work properly.
system.switch_cpus_1.BPredUnit.BTBHits         110912                       # Number of BTB hits
system.switch_cpus_1.BPredUnit.BTBLookups       159857                       # Number of BTB lookups
system.switch_cpus_1.BPredUnit.RASInCorrect            1                       # Number of incorrect RAS predictions.
system.switch_cpus_1.BPredUnit.condIncorrect        14589                       # Number of conditional branches incorrect
system.switch_cpus_1.BPredUnit.condPredicted       203083                       # Number of conditional branches predicted
system.switch_cpus_1.BPredUnit.lookups         215788                       # Number of BP lookups
system.switch_cpus_1.BPredUnit.usedRAS             10                       # Number of times the RAS was used to get a target.
system.switch_cpus_1.commit.COM:branches       149702                       # Number of branches committed
system.switch_cpus_1.commit.COM:bw_lim_events       741378                       # number cycles where commit BW limit reached
system.switch_cpus_1.commit.COM:bw_limited            0                       # number of insts not committed due to BW limits
system.switch_cpus_1.commit.COM:committed_per_cycle::samples     19608306                       # Number of insts commited each cycle
system.switch_cpus_1.commit.COM:committed_per_cycle::mean     0.512018                       # Number of insts commited each cycle
system.switch_cpus_1.commit.COM:committed_per_cycle::stdev     1.743188                       # Number of insts commited each cycle
system.switch_cpus_1.commit.COM:committed_per_cycle::underflows            0      0.00%      0.00% # Number of insts commited each cycle
system.switch_cpus_1.commit.COM:committed_per_cycle::0     17600611     89.76%     89.76% # Number of insts commited each cycle
system.switch_cpus_1.commit.COM:committed_per_cycle::1       247766      1.26%     91.02% # Number of insts commited each cycle
system.switch_cpus_1.commit.COM:committed_per_cycle::2       255658      1.30%     92.33% # Number of insts commited each cycle
system.switch_cpus_1.commit.COM:committed_per_cycle::3       251377      1.28%     93.61% # Number of insts commited each cycle
system.switch_cpus_1.commit.COM:committed_per_cycle::4       204462      1.04%     94.65% # Number of insts commited each cycle
system.switch_cpus_1.commit.COM:committed_per_cycle::5       129009      0.66%     95.31% # Number of insts commited each cycle
system.switch_cpus_1.commit.COM:committed_per_cycle::6       113649      0.58%     95.89% # Number of insts commited each cycle
system.switch_cpus_1.commit.COM:committed_per_cycle::7        64396      0.33%     96.22% # Number of insts commited each cycle
system.switch_cpus_1.commit.COM:committed_per_cycle::8       741378      3.78%    100.00% # Number of insts commited each cycle
system.switch_cpus_1.commit.COM:committed_per_cycle::overflows            0      0.00%    100.00% # Number of insts commited each cycle
system.switch_cpus_1.commit.COM:committed_per_cycle::min_value            0                       # Number of insts commited each cycle
system.switch_cpus_1.commit.COM:committed_per_cycle::max_value            8                       # Number of insts commited each cycle
system.switch_cpus_1.commit.COM:committed_per_cycle::total     19608306                       # Number of insts commited each cycle
system.switch_cpus_1.commit.COM:count        10039796                       # Number of instructions committed
system.switch_cpus_1.commit.COM:loads         3597948                       # Number of loads committed
system.switch_cpus_1.commit.COM:membars             0                       # Number of memory barriers committed
system.switch_cpus_1.commit.COM:refs          4152951                       # Number of memory references committed
system.switch_cpus_1.commit.COM:swp_count            0                       # Number of s/w prefetches committed
system.switch_cpus_1.commit.branchMispredicts        14586                       # The number of times a branch was mispredicted
system.switch_cpus_1.commit.commitCommittedInsts     10039796                       # The number of committed instructions
system.switch_cpus_1.commit.commitSquashedInsts      8964231                       # The number of squashed insts skipped by commit
system.switch_cpus_1.committedInsts          10000005                       # Number of Instructions Simulated
system.switch_cpus_1.committedInsts_total     10000005                       # Number of Instructions Simulated
system.switch_cpus_1.cpi                     2.352078                       # CPI: Cycles Per Instruction
system.switch_cpus_1.cpi_total               2.352078                       # CPI: Total CPI of All Threads
system.switch_cpus_1.decode.DECODE:BlockedCycles      9323677                       # Number of cycles decode is blocked
system.switch_cpus_1.decode.DECODE:BranchMispred            3                       # Number of times decode detected a branch misprediction
system.switch_cpus_1.decode.DECODE:BranchResolved        12693                       # Number of times decode resolved a branch
system.switch_cpus_1.decode.DECODE:DecodedInsts     30785262                       # Number of instructions handled by decode
system.switch_cpus_1.decode.DECODE:IdleCycles      6048802                       # Number of cycles decode is idle
system.switch_cpus_1.decode.DECODE:RunCycles      4169510                       # Number of cycles decode is running
system.switch_cpus_1.decode.DECODE:SquashCycles      1486280                       # Number of cycles decode is squashing
system.switch_cpus_1.decode.DECODE:SquashedInsts           12                       # Number of squashed instructions handled by decode
system.switch_cpus_1.decode.DECODE:UnblockCycles        66316                       # Number of cycles decode is unblocking
system.switch_cpus_1.dtb.data_accesses        6700555                       # DTB accesses
system.switch_cpus_1.dtb.data_acv                   0                       # DTB access violations
system.switch_cpus_1.dtb.data_hits            6668913                       # DTB hits
system.switch_cpus_1.dtb.data_misses            31642                       # DTB misses
system.switch_cpus_1.dtb.fetch_accesses             0                       # ITB accesses
system.switch_cpus_1.dtb.fetch_acv                  0                       # ITB acv
system.switch_cpus_1.dtb.fetch_hits                 0                       # ITB hits
system.switch_cpus_1.dtb.fetch_misses               0                       # ITB misses
system.switch_cpus_1.dtb.read_accesses        6053753                       # DTB read accesses
system.switch_cpus_1.dtb.read_acv                   0                       # DTB read access violations
system.switch_cpus_1.dtb.read_hits            6022134                       # DTB read hits
system.switch_cpus_1.dtb.read_misses            31619                       # DTB read misses
system.switch_cpus_1.dtb.write_accesses        646802                       # DTB write accesses
system.switch_cpus_1.dtb.write_acv                  0                       # DTB write access violations
system.switch_cpus_1.dtb.write_hits            646779                       # DTB write hits
system.switch_cpus_1.dtb.write_misses              23                       # DTB write misses
system.switch_cpus_1.fetch.Branches            215788                       # Number of branches that fetch encountered
system.switch_cpus_1.fetch.CacheLines         3072895                       # Number of cache lines fetched
system.switch_cpus_1.fetch.Cycles             7348395                       # Number of cycles fetch has run and was not squashing or blocked
system.switch_cpus_1.fetch.IcacheSquashes       366246                       # Number of outstanding Icache misses that were squashed
system.switch_cpus_1.fetch.Insts             31093120                       # Number of instructions fetch has processed
system.switch_cpus_1.fetch.SquashCycles        819773                       # Number of cycles fetch has spent squashing
system.switch_cpus_1.fetch.branchRate        0.009174                       # Number of branch fetches per cycle
system.switch_cpus_1.fetch.icacheStallCycles      3072895                       # Number of cycles fetch is stalled on an Icache miss
system.switch_cpus_1.fetch.predictedBranches       110922                       # Number of branches that fetch has predicted taken
system.switch_cpus_1.fetch.rate              1.321942                       # Number of inst fetches per cycle
system.switch_cpus_1.fetch.rateDist::samples     21094586                       # Number of instructions fetched each cycle (Total)
system.switch_cpus_1.fetch.rateDist::mean     1.473986                       # Number of instructions fetched each cycle (Total)
system.switch_cpus_1.fetch.rateDist::stdev     3.021609                       # Number of instructions fetched each cycle (Total)
system.switch_cpus_1.fetch.rateDist::underflows            0      0.00%      0.00% # Number of instructions fetched each cycle (Total)
system.switch_cpus_1.fetch.rateDist::0       16819100     79.73%     79.73% # Number of instructions fetched each cycle (Total)
system.switch_cpus_1.fetch.rateDist::1          68435      0.32%     80.06% # Number of instructions fetched each cycle (Total)
system.switch_cpus_1.fetch.rateDist::2         124468      0.59%     80.65% # Number of instructions fetched each cycle (Total)
system.switch_cpus_1.fetch.rateDist::3         113045      0.54%     81.18% # Number of instructions fetched each cycle (Total)
system.switch_cpus_1.fetch.rateDist::4         136900      0.65%     81.83% # Number of instructions fetched each cycle (Total)
system.switch_cpus_1.fetch.rateDist::5         101080      0.48%     82.31% # Number of instructions fetched each cycle (Total)
system.switch_cpus_1.fetch.rateDist::6         169400      0.80%     83.11% # Number of instructions fetched each cycle (Total)
system.switch_cpus_1.fetch.rateDist::7         130050      0.62%     83.73% # Number of instructions fetched each cycle (Total)
system.switch_cpus_1.fetch.rateDist::8        3432108     16.27%    100.00% # Number of instructions fetched each cycle (Total)
system.switch_cpus_1.fetch.rateDist::overflows            0      0.00%    100.00% # Number of instructions fetched each cycle (Total)
system.switch_cpus_1.fetch.rateDist::min_value            0                       # Number of instructions fetched each cycle (Total)
system.switch_cpus_1.fetch.rateDist::max_value            8                       # Number of instructions fetched each cycle (Total)
system.switch_cpus_1.fetch.rateDist::total     21094586                       # Number of instructions fetched each cycle (Total)
system.switch_cpus_1.idleCycles               2426205                       # Total number of cycles that the CPU has spent unscheduled due to idling
system.switch_cpus_1.iew.EXEC:branches         159229                       # Number of branches executed
system.switch_cpus_1.iew.EXEC:nop               43869                       # number of nop insts executed
system.switch_cpus_1.iew.EXEC:rate           0.586852                       # Inst execution rate
system.switch_cpus_1.iew.EXEC:refs            6815855                       # number of memory reference insts executed
system.switch_cpus_1.iew.EXEC:stores           646802                       # Number of stores executed
system.switch_cpus_1.iew.EXEC:swp                   0                       # number of swp insts executed
system.switch_cpus_1.iew.WB:consumers         6368251                       # num instructions consuming a value
system.switch_cpus_1.iew.WB:count            11345031                       # cumulative count of insts written-back
system.switch_cpus_1.iew.WB:fanout           0.841425                       # average fanout of values written-back
system.switch_cpus_1.iew.WB:penalized               0                       # number of instrctions required to write to 'other' IQ
system.switch_cpus_1.iew.WB:penalized_rate            0                       # fraction of instructions written-back that wrote to 'other' IQ
system.switch_cpus_1.iew.WB:producers         5358405                       # num instructions producing a value
system.switch_cpus_1.iew.WB:rate             0.482341                       # insts written-back per cycle
system.switch_cpus_1.iew.WB:sent             11378561                       # cumulative count of insts sent to commit
system.switch_cpus_1.iew.branchMispredicts        19177                       # Number of branch mispredicts detected at execute
system.switch_cpus_1.iew.iewBlockCycles       5818501                       # Number of cycles IEW is blocking
system.switch_cpus_1.iew.iewDispLoadInsts      7516873                       # Number of dispatched load instructions
system.switch_cpus_1.iew.iewDispNonSpecInsts            0                       # Number of dispatched non-speculative instructions
system.switch_cpus_1.iew.iewDispSquashedInsts      2346990                       # Number of squashed instructions skipped by dispatch
system.switch_cpus_1.iew.iewDispStoreInsts       931826                       # Number of dispatched store instructions
system.switch_cpus_1.iew.iewDispatchedInsts     19077093                       # Number of instructions dispatched to IQ
system.switch_cpus_1.iew.iewExecLoadInsts      6169053                       # Number of load instructions executed
system.switch_cpus_1.iew.iewExecSquashedInsts      1763329                       # Number of squashed instructions skipped in execute
system.switch_cpus_1.iew.iewExecutedInsts     13803221                       # Number of executed instructions
system.switch_cpus_1.iew.iewIQFullEvents        62028                       # Number of times the IQ has become full, causing a stall
system.switch_cpus_1.iew.iewIdleCycles              0                       # Number of cycles IEW is idle
system.switch_cpus_1.iew.iewLSQFullEvents         3024                       # Number of times the LSQ has become full, causing a stall
system.switch_cpus_1.iew.iewSquashCycles      1486280                       # Number of cycles IEW is squashing
system.switch_cpus_1.iew.iewUnblockCycles       142130                       # Number of cycles IEW is unblocking
system.switch_cpus_1.iew.lsq.thread.0.blockedLoads            0                       # Number of blocked loads due to partial load-store forwarding
system.switch_cpus_1.iew.lsq.thread.0.cacheBlocked      2413858                       # Number of times an access to memory failed due to the cache being blocked
system.switch_cpus_1.iew.lsq.thread.0.forwLoads         2001                       # Number of loads that had data forwarded from stores
system.switch_cpus_1.iew.lsq.thread.0.ignoredResponses            0                       # Number of memory responses ignored because the instruction is squashed
system.switch_cpus_1.iew.lsq.thread.0.invAddrLoads            0                       # Number of loads ignored due to an invalid address
system.switch_cpus_1.iew.lsq.thread.0.invAddrSwpfs            0                       # Number of software prefetches ignored due to an invalid address
system.switch_cpus_1.iew.lsq.thread.0.memOrderViolation         1262                       # Number of memory ordering violations
system.switch_cpus_1.iew.lsq.thread.0.rescheduledLoads            0                       # Number of loads that were rescheduled
system.switch_cpus_1.iew.lsq.thread.0.squashedLoads      3918901                       # Number of loads squashed
system.switch_cpus_1.iew.lsq.thread.0.squashedStores       376822                       # Number of stores squashed
system.switch_cpus_1.iew.memOrderViolationEvents         1262                       # Number of memory order violations
system.switch_cpus_1.iew.predictedNotTakenIncorrect         8638                       # Number of branches that were predicted not taken incorrectly
system.switch_cpus_1.iew.predictedTakenIncorrect        10539                       # Number of branches that were predicted taken incorrectly
system.switch_cpus_1.ipc                     0.425156                       # IPC: Instructions Per Cycle
system.switch_cpus_1.ipc_total               0.425156                       # IPC: Total IPC of All Threads
system.switch_cpus_1.iq.ISSUE:FU_type_0::No_OpClass            0      0.00%      0.00% # Type of FU issued
system.switch_cpus_1.iq.ISSUE:FU_type_0::IntAlu       857897      5.51%      5.51% # Type of FU issued
system.switch_cpus_1.iq.ISSUE:FU_type_0::IntMult         8177      0.05%      5.56% # Type of FU issued
system.switch_cpus_1.iq.ISSUE:FU_type_0::IntDiv            0      0.00%      5.56% # Type of FU issued
system.switch_cpus_1.iq.ISSUE:FU_type_0::FloatAdd      4412231     28.34%     33.91% # Type of FU issued
system.switch_cpus_1.iq.ISSUE:FU_type_0::FloatCmp            0      0.00%     33.91% # Type of FU issued
system.switch_cpus_1.iq.ISSUE:FU_type_0::FloatCvt            0      0.00%     33.91% # Type of FU issued
system.switch_cpus_1.iq.ISSUE:FU_type_0::FloatMult      3101455     19.92%     53.83% # Type of FU issued
system.switch_cpus_1.iq.ISSUE:FU_type_0::FloatDiv            0      0.00%     53.83% # Type of FU issued
system.switch_cpus_1.iq.ISSUE:FU_type_0::FloatSqrt            0      0.00%     53.83% # Type of FU issued
system.switch_cpus_1.iq.ISSUE:FU_type_0::MemRead      6500414     41.76%     95.59% # Type of FU issued
system.switch_cpus_1.iq.ISSUE:FU_type_0::MemWrite       686378      4.41%    100.00% # Type of FU issued
system.switch_cpus_1.iq.ISSUE:FU_type_0::IprAccess            0      0.00%    100.00% # Type of FU issued
system.switch_cpus_1.iq.ISSUE:FU_type_0::InstPrefetch            0      0.00%    100.00% # Type of FU issued
system.switch_cpus_1.iq.ISSUE:FU_type_0::total     15566552                       # Type of FU issued
system.switch_cpus_1.iq.ISSUE:fu_busy_cnt       132430                       # FU busy when requested
system.switch_cpus_1.iq.ISSUE:fu_busy_rate     0.008507                       # FU busy rate (busy events/executed inst)
system.switch_cpus_1.iq.ISSUE:fu_full::No_OpClass            0      0.00%      0.00% # attempts to use FU when none available
system.switch_cpus_1.iq.ISSUE:fu_full::IntAlu           10      0.01%      0.01% # attempts to use FU when none available
system.switch_cpus_1.iq.ISSUE:fu_full::IntMult            0      0.00%      0.01% # attempts to use FU when none available
system.switch_cpus_1.iq.ISSUE:fu_full::IntDiv            0      0.00%      0.01% # attempts to use FU when none available
system.switch_cpus_1.iq.ISSUE:fu_full::FloatAdd         2213      1.67%      1.68% # attempts to use FU when none available
system.switch_cpus_1.iq.ISSUE:fu_full::FloatCmp            0      0.00%      1.68% # attempts to use FU when none available
system.switch_cpus_1.iq.ISSUE:fu_full::FloatCvt            0      0.00%      1.68% # attempts to use FU when none available
system.switch_cpus_1.iq.ISSUE:fu_full::FloatMult        59214     44.71%     46.39% # attempts to use FU when none available
system.switch_cpus_1.iq.ISSUE:fu_full::FloatDiv            0      0.00%     46.39% # attempts to use FU when none available
system.switch_cpus_1.iq.ISSUE:fu_full::FloatSqrt            0      0.00%     46.39% # attempts to use FU when none available
system.switch_cpus_1.iq.ISSUE:fu_full::MemRead        68874     52.01%     98.40% # attempts to use FU when none available
system.switch_cpus_1.iq.ISSUE:fu_full::MemWrite         2119      1.60%    100.00% # attempts to use FU when none available
system.switch_cpus_1.iq.ISSUE:fu_full::IprAccess            0      0.00%    100.00% # attempts to use FU when none available
system.switch_cpus_1.iq.ISSUE:fu_full::InstPrefetch            0      0.00%    100.00% # attempts to use FU when none available
system.switch_cpus_1.iq.ISSUE:issued_per_cycle::samples     21094586                       # Number of insts issued each cycle
system.switch_cpus_1.iq.ISSUE:issued_per_cycle::mean     0.737941                       # Number of insts issued each cycle
system.switch_cpus_1.iq.ISSUE:issued_per_cycle::stdev     1.360618                       # Number of insts issued each cycle
system.switch_cpus_1.iq.ISSUE:issued_per_cycle::underflows            0      0.00%      0.00% # Number of insts issued each cycle
system.switch_cpus_1.iq.ISSUE:issued_per_cycle::0     14226960     67.44%     67.44% # Number of insts issued each cycle
system.switch_cpus_1.iq.ISSUE:issued_per_cycle::1      2691199     12.76%     80.20% # Number of insts issued each cycle
system.switch_cpus_1.iq.ISSUE:issued_per_cycle::2      1891761      8.97%     89.17% # Number of insts issued each cycle
system.switch_cpus_1.iq.ISSUE:issued_per_cycle::3      1194758      5.66%     94.83% # Number of insts issued each cycle
system.switch_cpus_1.iq.ISSUE:issued_per_cycle::4       509012      2.41%     97.25% # Number of insts issued each cycle
system.switch_cpus_1.iq.ISSUE:issued_per_cycle::5       254220      1.21%     98.45% # Number of insts issued each cycle
system.switch_cpus_1.iq.ISSUE:issued_per_cycle::6       158093      0.75%     99.20% # Number of insts issued each cycle
system.switch_cpus_1.iq.ISSUE:issued_per_cycle::7        96813      0.46%     99.66% # Number of insts issued each cycle
system.switch_cpus_1.iq.ISSUE:issued_per_cycle::8        71770      0.34%    100.00% # Number of insts issued each cycle
system.switch_cpus_1.iq.ISSUE:issued_per_cycle::overflows            0      0.00%    100.00% # Number of insts issued each cycle
system.switch_cpus_1.iq.ISSUE:issued_per_cycle::min_value            0                       # Number of insts issued each cycle
system.switch_cpus_1.iq.ISSUE:issued_per_cycle::max_value            8                       # Number of insts issued each cycle
system.switch_cpus_1.iq.ISSUE:issued_per_cycle::total     21094586                       # Number of insts issued each cycle
system.switch_cpus_1.iq.ISSUE:rate           0.661821                       # Inst issue rate
system.switch_cpus_1.iq.iqInstsAdded         19033224                       # Number of instructions added to the IQ (excludes non-spec)
system.switch_cpus_1.iq.iqInstsIssued        15566552                       # Number of instructions issued
system.switch_cpus_1.iq.iqSquashedInstsExamined      9032466                       # Number of squashed instructions iterated over during squash; mainly for profiling
system.switch_cpus_1.iq.iqSquashedInstsIssued      1728156                       # Number of squashed instructions issued
system.switch_cpus_1.iq.iqSquashedOperandsExamined      8710302                       # Number of squashed operands that are examined and possibly removed from graph
system.switch_cpus_1.itb.data_accesses              0                       # DTB accesses
system.switch_cpus_1.itb.data_acv                   0                       # DTB access violations
system.switch_cpus_1.itb.data_hits                  0                       # DTB hits
system.switch_cpus_1.itb.data_misses                0                       # DTB misses
system.switch_cpus_1.itb.fetch_accesses       3072912                       # ITB accesses
system.switch_cpus_1.itb.fetch_acv                  0                       # ITB acv
system.switch_cpus_1.itb.fetch_hits           3072895                       # ITB hits
system.switch_cpus_1.itb.fetch_misses              17                       # ITB misses
system.switch_cpus_1.itb.read_accesses              0                       # DTB read accesses
system.switch_cpus_1.itb.read_acv                   0                       # DTB read access violations
system.switch_cpus_1.itb.read_hits                  0                       # DTB read hits
system.switch_cpus_1.itb.read_misses                0                       # DTB read misses
system.switch_cpus_1.itb.write_accesses             0                       # DTB write accesses
system.switch_cpus_1.itb.write_acv                  0                       # DTB write access violations
system.switch_cpus_1.itb.write_hits                 0                       # DTB write hits
system.switch_cpus_1.itb.write_misses               0                       # DTB write misses
system.switch_cpus_1.memDep0.conflictingLoads       355101                       # Number of conflicting loads.
system.switch_cpus_1.memDep0.conflictingStores        77038                       # Number of conflicting stores.
system.switch_cpus_1.memDep0.insertedLoads      7516873                       # Number of loads inserted to the mem dependence unit.
system.switch_cpus_1.memDep0.insertedStores       931826                       # Number of stores inserted to the mem dependence unit.
system.switch_cpus_1.numCycles               23520791                       # number of cpu cycles simulated
system.switch_cpus_1.rename.RENAME:BlockCycles      8113268                       # Number of cycles rename is blocking
system.switch_cpus_1.rename.RENAME:CommittedMaps      9193394                       # Number of HB maps that are committed
system.switch_cpus_1.rename.RENAME:IQFullEvents       143411                       # Number of times rename has blocked due to IQ full
system.switch_cpus_1.rename.RENAME:IdleCycles      6656823                       # Number of cycles rename is idle
system.switch_cpus_1.rename.RENAME:LSQFullEvents      1114665                       # Number of times rename has blocked due to LSQ full
system.switch_cpus_1.rename.RENAME:ROBFullEvents        29107                       # Number of times rename has blocked due to ROB full
system.switch_cpus_1.rename.RENAME:RenameLookups     42415123                       # Number of register rename lookups that rename has made
system.switch_cpus_1.rename.RENAME:RenamedInsts     27051377                       # Number of instructions processed by rename
system.switch_cpus_1.rename.RENAME:RenamedOperands     25435123                       # Number of destination operands rename has renamed
system.switch_cpus_1.rename.RENAME:RunCycles      3615821                       # Number of cycles rename is running
system.switch_cpus_1.rename.RENAME:SquashCycles      1486280                       # Number of cycles rename is squashing
system.switch_cpus_1.rename.RENAME:UnblockCycles      1222393                       # Number of cycles rename is unblocking
system.switch_cpus_1.rename.RENAME:UndoneMaps     16241649                       # Number of HB maps that are undone due to squashing
system.switch_cpus_1.rename.RENAME:serializeStallCycles            0                       # count of cycles rename stalled for serializing inst
system.switch_cpus_1.rename.RENAME:serializingInsts            0                       # count of serializing insts renamed
system.switch_cpus_1.rename.RENAME:skidInsts      3224266                       # count of insts added to the skid buffer
system.switch_cpus_1.rename.RENAME:tempSerializingInsts            0                       # count of temporary serializing insts renamed
system.switch_cpus_1.timesIdled                 55315                       # Number of times that the entire CPU went into an idle state and unscheduled itself

---------- End Simulation Statistics   ----------
