
---------- Begin Simulation Statistics ----------
host_inst_rate                                 191333                       # Simulator instruction rate (inst/s)
host_mem_usage                                 319100                       # Number of bytes of host memory used
host_seconds                                   104.53                       # Real time elapsed on the host
host_tick_rate                             1443384917                       # Simulator tick rate (ticks/s)
sim_freq                                 1000000000000                       # Frequency of simulated ticks
sim_insts                                    20000009                       # Number of instructions simulated
sim_seconds                                  0.150877                       # Number of seconds simulated
sim_ticks                                150877047000                       # Number of ticks simulated
system.cpu.dcache.ReadReq_accesses            4710639                       # number of ReadReq accesses(hits+misses)
system.cpu.dcache.ReadReq_avg_miss_latency 110898.702458                       # average ReadReq miss latency
system.cpu.dcache.ReadReq_avg_mshr_miss_latency 110543.729150                       # average ReadReq mshr miss latency
system.cpu.dcache.ReadReq_hits                1769462                       # number of ReadReq hits
system.cpu.dcache.ReadReq_miss_latency   326172713000                       # number of ReadReq miss cycles
system.cpu.dcache.ReadReq_miss_rate          0.624369                       # miss rate for ReadReq accesses
system.cpu.dcache.ReadReq_misses              2941177                       # number of ReadReq misses
system.cpu.dcache.ReadReq_mshr_hits            361135                       # number of ReadReq MSHR hits
system.cpu.dcache.ReadReq_mshr_miss_latency 285207353500                       # number of ReadReq MSHR miss cycles
system.cpu.dcache.ReadReq_mshr_miss_rate     0.547705                       # mshr miss rate for ReadReq accesses
system.cpu.dcache.ReadReq_mshr_misses         2580041                       # number of ReadReq MSHR misses
system.cpu.dcache.WriteReq_accesses           1567315                       # number of WriteReq accesses(hits+misses)
system.cpu.dcache.WriteReq_avg_miss_latency 115243.483188                       # average WriteReq miss latency
system.cpu.dcache.WriteReq_avg_mshr_miss_latency 114567.033178                       # average WriteReq mshr miss latency
system.cpu.dcache.WriteReq_hits                983016                       # number of WriteReq hits
system.cpu.dcache.WriteReq_miss_latency   67336651983                       # number of WriteReq miss cycles
system.cpu.dcache.WriteReq_miss_rate         0.372803                       # miss rate for WriteReq accesses
system.cpu.dcache.WriteReq_misses              584299                       # number of WriteReq misses
system.cpu.dcache.WriteReq_mshr_hits            40024                       # number of WriteReq MSHR hits
system.cpu.dcache.WriteReq_mshr_miss_latency  62355971983                       # number of WriteReq MSHR miss cycles
system.cpu.dcache.WriteReq_mshr_miss_rate     0.347266                       # mshr miss rate for WriteReq accesses
system.cpu.dcache.WriteReq_mshr_misses         544275                       # number of WriteReq MSHR misses
system.cpu.dcache.avg_blocked_cycles::no_mshrs 25693.879391                       # average number of cycles each access was blocked
system.cpu.dcache.avg_blocked_cycles::no_targets 73232.004297                       # average number of cycles each access was blocked
system.cpu.dcache.avg_refs                   1.260256                       # Average number of references to valid blocks.
system.cpu.dcache.blocked::no_mshrs            179315                       # number of cycles access was blocked
system.cpu.dcache.blocked::no_targets           16754                       # number of cycles access was blocked
system.cpu.dcache.blocked_cycles::no_mshrs   4607297983                       # number of cycles access was blocked
system.cpu.dcache.blocked_cycles::no_targets   1226929000                       # number of cycles access was blocked
system.cpu.dcache.cache_copies                      0                       # number of cache copies performed
system.cpu.dcache.demand_accesses             6277954                       # number of demand (read+write) accesses
system.cpu.dcache.demand_avg_miss_latency 111618.789912                       # average overall miss latency
system.cpu.dcache.demand_avg_mshr_miss_latency 111244.613376                       # average overall mshr miss latency
system.cpu.dcache.demand_hits                 2752478                       # number of demand (read+write) hits
system.cpu.dcache.demand_miss_latency    393509364983                       # number of demand (read+write) miss cycles
system.cpu.dcache.demand_miss_rate           0.561564                       # miss rate for demand accesses
system.cpu.dcache.demand_misses               3525476                       # number of demand (read+write) misses
system.cpu.dcache.demand_mshr_hits             401159                       # number of demand (read+write) MSHR hits
system.cpu.dcache.demand_mshr_miss_latency 347563325483                       # number of demand (read+write) MSHR miss cycles
system.cpu.dcache.demand_mshr_miss_rate      0.497665                       # mshr miss rate for demand accesses
system.cpu.dcache.demand_mshr_misses          3124316                       # number of demand (read+write) MSHR misses
system.cpu.dcache.fast_writes                       0                       # number of fast writes performed
system.cpu.dcache.mshr_cap_events                   0                       # number of times MSHR cap was activated
system.cpu.dcache.no_allocate_misses                0                       # Number of misses that were no-allocate
system.cpu.dcache.occ_%::0                   0.999733                       # Average percentage of cache occupancy
system.cpu.dcache.occ_%::1                  -0.000204                       # Average percentage of cache occupancy
system.cpu.dcache.occ_blocks::0           1023.726455                       # Average occupied blocks per context
system.cpu.dcache.occ_blocks::1             -0.208669                       # Average occupied blocks per context
system.cpu.dcache.overall_accesses            6277954                       # number of overall (read+write) accesses
system.cpu.dcache.overall_avg_miss_latency 111618.789912                       # average overall miss latency
system.cpu.dcache.overall_avg_mshr_miss_latency 111244.613376                       # average overall mshr miss latency
system.cpu.dcache.overall_avg_mshr_uncacheable_latency     no_value                       # average overall mshr uncacheable latency
system.cpu.dcache.overall_hits                2752478                       # number of overall hits
system.cpu.dcache.overall_miss_latency   393509364983                       # number of overall miss cycles
system.cpu.dcache.overall_miss_rate          0.561564                       # miss rate for overall accesses
system.cpu.dcache.overall_misses              3525476                       # number of overall misses
system.cpu.dcache.overall_mshr_hits            401159                       # number of overall MSHR hits
system.cpu.dcache.overall_mshr_miss_latency 347563325483                       # number of overall MSHR miss cycles
system.cpu.dcache.overall_mshr_miss_rate     0.497665                       # mshr miss rate for overall accesses
system.cpu.dcache.overall_mshr_misses         3124316                       # number of overall MSHR misses
system.cpu.dcache.overall_mshr_uncacheable_latency            0                       # number of overall MSHR uncacheable cycles
system.cpu.dcache.overall_mshr_uncacheable_misses            0                       # number of overall MSHR uncacheable misses
system.cpu.dcache.prefetch_accuracy          no_value                       # ratio of good prefetches to total prefetches
system.cpu.dcache.prefetch_hits                     0                       # number of prefetched blocks that were accessed
system.cpu.dcache.replacements                2599041                       # number of replacements
system.cpu.dcache.sampled_refs                2600065                       # Sample count of references to valid blocks.
system.cpu.dcache.soft_prefetch_mshr_full            0                       # number of mshr full events for SW prefetching instrutions
system.cpu.dcache.tagsinuse               1023.622120                       # Cycle average of tags in use
system.cpu.dcache.total_refs                  3276747                       # Total number of references to valid blocks.
system.cpu.dcache.warmup_cycle           501004787500                       # Cycle when the warmup percentage was hit.
system.cpu.dcache.writebacks                   543830                       # number of writebacks
system.cpu.dtb.data_accesses                        1                       # DTB accesses
system.cpu.dtb.data_acv                             0                       # DTB access violations
system.cpu.dtb.data_hits                            1                       # DTB hits
system.cpu.dtb.data_misses                          0                       # DTB misses
system.cpu.dtb.fetch_accesses                       0                       # ITB accesses
system.cpu.dtb.fetch_acv                            0                       # ITB acv
system.cpu.dtb.fetch_hits                           0                       # ITB hits
system.cpu.dtb.fetch_misses                         0                       # ITB misses
system.cpu.dtb.read_accesses                        1                       # DTB read accesses
system.cpu.dtb.read_acv                             0                       # DTB read access violations
system.cpu.dtb.read_hits                            1                       # DTB read hits
system.cpu.dtb.read_misses                          0                       # DTB read misses
system.cpu.dtb.write_accesses                       0                       # DTB write accesses
system.cpu.dtb.write_acv                            0                       # DTB write access violations
system.cpu.dtb.write_hits                           0                       # DTB write hits
system.cpu.dtb.write_misses                         0                       # DTB write misses
system.cpu.icache.ReadReq_accesses           13612161                       # number of ReadReq accesses(hits+misses)
system.cpu.icache.ReadReq_avg_miss_latency 63292.968750                       # average ReadReq miss latency
system.cpu.icache.ReadReq_avg_mshr_miss_latency 60619.047619                       # average ReadReq mshr miss latency
system.cpu.icache.ReadReq_hits               13612033                       # number of ReadReq hits
system.cpu.icache.ReadReq_miss_latency        8101500                       # number of ReadReq miss cycles
system.cpu.icache.ReadReq_miss_rate          0.000009                       # miss rate for ReadReq accesses
system.cpu.icache.ReadReq_misses                  128                       # number of ReadReq misses
system.cpu.icache.ReadReq_mshr_hits                 1                       # number of ReadReq MSHR hits
system.cpu.icache.ReadReq_mshr_miss_latency      7638000                       # number of ReadReq MSHR miss cycles
system.cpu.icache.ReadReq_mshr_miss_rate     0.000009                       # mshr miss rate for ReadReq accesses
system.cpu.icache.ReadReq_mshr_misses             126                       # number of ReadReq MSHR misses
system.cpu.icache.avg_blocked_cycles::no_mshrs     no_value                       # average number of cycles each access was blocked
system.cpu.icache.avg_blocked_cycles::no_targets     no_value                       # average number of cycles each access was blocked
system.cpu.icache.avg_refs               107181.362205                       # Average number of references to valid blocks.
system.cpu.icache.blocked::no_mshrs                 0                       # number of cycles access was blocked
system.cpu.icache.blocked::no_targets               0                       # number of cycles access was blocked
system.cpu.icache.blocked_cycles::no_mshrs            0                       # number of cycles access was blocked
system.cpu.icache.blocked_cycles::no_targets            0                       # number of cycles access was blocked
system.cpu.icache.cache_copies                      0                       # number of cache copies performed
system.cpu.icache.demand_accesses            13612161                       # number of demand (read+write) accesses
system.cpu.icache.demand_avg_miss_latency 63292.968750                       # average overall miss latency
system.cpu.icache.demand_avg_mshr_miss_latency 60619.047619                       # average overall mshr miss latency
system.cpu.icache.demand_hits                13612033                       # number of demand (read+write) hits
system.cpu.icache.demand_miss_latency         8101500                       # number of demand (read+write) miss cycles
system.cpu.icache.demand_miss_rate           0.000009                       # miss rate for demand accesses
system.cpu.icache.demand_misses                   128                       # number of demand (read+write) misses
system.cpu.icache.demand_mshr_hits                  1                       # number of demand (read+write) MSHR hits
system.cpu.icache.demand_mshr_miss_latency      7638000                       # number of demand (read+write) MSHR miss cycles
system.cpu.icache.demand_mshr_miss_rate      0.000009                       # mshr miss rate for demand accesses
system.cpu.icache.demand_mshr_misses              126                       # number of demand (read+write) MSHR misses
system.cpu.icache.fast_writes                       0                       # number of fast writes performed
system.cpu.icache.mshr_cap_events                   0                       # number of times MSHR cap was activated
system.cpu.icache.no_allocate_misses                0                       # Number of misses that were no-allocate
system.cpu.icache.occ_%::0                   0.170540                       # Average percentage of cache occupancy
system.cpu.icache.occ_blocks::0             87.316328                       # Average occupied blocks per context
system.cpu.icache.overall_accesses           13612161                       # number of overall (read+write) accesses
system.cpu.icache.overall_avg_miss_latency 63292.968750                       # average overall miss latency
system.cpu.icache.overall_avg_mshr_miss_latency 60619.047619                       # average overall mshr miss latency
system.cpu.icache.overall_avg_mshr_uncacheable_latency     no_value                       # average overall mshr uncacheable latency
system.cpu.icache.overall_hits               13612033                       # number of overall hits
system.cpu.icache.overall_miss_latency        8101500                       # number of overall miss cycles
system.cpu.icache.overall_miss_rate          0.000009                       # miss rate for overall accesses
system.cpu.icache.overall_misses                  128                       # number of overall misses
system.cpu.icache.overall_mshr_hits                 1                       # number of overall MSHR hits
system.cpu.icache.overall_mshr_miss_latency      7638000                       # number of overall MSHR miss cycles
system.cpu.icache.overall_mshr_miss_rate     0.000009                       # mshr miss rate for overall accesses
system.cpu.icache.overall_mshr_misses             126                       # number of overall MSHR misses
system.cpu.icache.overall_mshr_uncacheable_latency            0                       # number of overall MSHR uncacheable cycles
system.cpu.icache.overall_mshr_uncacheable_misses            0                       # number of overall MSHR uncacheable misses
system.cpu.icache.prefetch_accuracy          no_value                       # ratio of good prefetches to total prefetches
system.cpu.icache.prefetch_hits                     0                       # number of prefetched blocks that were accessed
system.cpu.icache.replacements                      0                       # number of replacements
system.cpu.icache.sampled_refs                    127                       # Sample count of references to valid blocks.
system.cpu.icache.soft_prefetch_mshr_full            0                       # number of mshr full events for SW prefetching instrutions
system.cpu.icache.tagsinuse                 87.316328                       # Cycle average of tags in use
system.cpu.icache.total_refs                 13612033                       # Total number of references to valid blocks.
system.cpu.icache.warmup_cycle                      0                       # Cycle when the warmup percentage was hit.
system.cpu.icache.writebacks                        0                       # number of writebacks
system.cpu.idle_fraction                            0                       # Percentage of idle cycles
system.cpu.itb.data_accesses                        0                       # DTB accesses
system.cpu.itb.data_acv                             0                       # DTB access violations
system.cpu.itb.data_hits                            0                       # DTB hits
system.cpu.itb.data_misses                          0                       # DTB misses
system.cpu.itb.fetch_accesses                       2                       # ITB accesses
system.cpu.itb.fetch_acv                            0                       # ITB acv
system.cpu.itb.fetch_hits                           2                       # ITB hits
system.cpu.itb.fetch_misses                         0                       # ITB misses
system.cpu.itb.read_accesses                        0                       # DTB read accesses
system.cpu.itb.read_acv                             0                       # DTB read access violations
system.cpu.itb.read_hits                            0                       # DTB read hits
system.cpu.itb.read_misses                          0                       # DTB read misses
system.cpu.itb.write_accesses                       0                       # DTB write accesses
system.cpu.itb.write_acv                            0                       # DTB write access violations
system.cpu.itb.write_hits                           0                       # DTB write hits
system.cpu.itb.write_misses                         0                       # DTB write misses
system.cpu.not_idle_fraction                        1                       # Percentage of non-idle cycles
system.cpu.numCycles                                2                       # number of cpu cycles simulated
system.cpu.num_insts                                2                       # Number of instructions executed
system.cpu.num_refs                                 1                       # Number of memory references
system.cpu.workload.PROG:num_syscalls               0                       # Number of system calls
system.l2.HardPFReq_avg_mshr_miss_latency 82648.183471                       # average HardPFReq mshr miss latency
system.l2.HardPFReq_mshr_miss_latency     29893186776                       # number of HardPFReq MSHR miss cycles
system.l2.HardPFReq_mshr_miss_rate                inf                       # mshr miss rate for HardPFReq accesses
system.l2.HardPFReq_mshr_misses                361692                       # number of HardPFReq MSHR misses
system.l2.ReadExReq_accesses                    20024                       # number of ReadExReq accesses(hits+misses)
system.l2.ReadExReq_avg_miss_latency     69209.498602                       # average ReadExReq miss latency
system.l2.ReadExReq_avg_mshr_miss_latency 54194.191970                       # average ReadExReq mshr miss latency
system.l2.ReadExReq_miss_latency           1385851000                       # number of ReadExReq miss cycles
system.l2.ReadExReq_miss_rate                       1                       # miss rate for ReadExReq accesses
system.l2.ReadExReq_misses                      20024                       # number of ReadExReq misses
system.l2.ReadExReq_mshr_miss_latency      1085184500                       # number of ReadExReq MSHR miss cycles
system.l2.ReadExReq_mshr_miss_rate                  1                       # mshr miss rate for ReadExReq accesses
system.l2.ReadExReq_mshr_misses                 20024                       # number of ReadExReq MSHR misses
system.l2.ReadReq_accesses                    2580168                       # number of ReadReq accesses(hits+misses)
system.l2.ReadReq_avg_miss_latency       113858.520656                       # average ReadReq miss latency
system.l2.ReadReq_avg_mshr_miss_latency  98455.552697                       # average ReadReq mshr miss latency
system.l2.ReadReq_hits                         117130                       # number of ReadReq hits
system.l2.ReadReq_miss_latency           280437863000                       # number of ReadReq miss cycles
system.l2.ReadReq_miss_rate                  0.954604                       # miss rate for ReadReq accesses
system.l2.ReadReq_misses                      2463038                       # number of ReadReq misses
system.l2.ReadReq_mshr_hits                     10705                       # number of ReadReq MSHR hits
system.l2.ReadReq_mshr_miss_latency      241445604000                       # number of ReadReq MSHR miss cycles
system.l2.ReadReq_mshr_miss_rate             0.950454                       # mshr miss rate for ReadReq accesses
system.l2.ReadReq_mshr_misses                 2452331                       # number of ReadReq MSHR misses
system.l2.UpgradeReq_accesses                  524252                       # number of UpgradeReq accesses(hits+misses)
system.l2.UpgradeReq_avg_miss_latency    114362.874990                       # average UpgradeReq miss latency
system.l2.UpgradeReq_avg_mshr_miss_latency 98942.157487                       # average UpgradeReq mshr miss latency
system.l2.UpgradeReq_miss_latency         59954965939                       # number of UpgradeReq miss cycles
system.l2.UpgradeReq_miss_rate                      1                       # miss rate for UpgradeReq accesses
system.l2.UpgradeReq_misses                    524252                       # number of UpgradeReq misses
system.l2.UpgradeReq_mshr_miss_latency    51870623947                       # number of UpgradeReq MSHR miss cycles
system.l2.UpgradeReq_mshr_miss_rate                 1                       # mshr miss rate for UpgradeReq accesses
system.l2.UpgradeReq_mshr_misses               524252                       # number of UpgradeReq MSHR misses
system.l2.Writeback_accesses                   543830                       # number of Writeback accesses(hits+misses)
system.l2.Writeback_hits                       543830                       # number of Writeback hits
system.l2.avg_blocked_cycles::no_mshrs   17105.263158                       # average number of cycles each access was blocked
system.l2.avg_blocked_cycles::no_targets     no_value                       # average number of cycles each access was blocked
system.l2.avg_refs                           0.386221                       # Average number of references to valid blocks.
system.l2.blocked::no_mshrs                        38                       # number of cycles access was blocked
system.l2.blocked::no_targets                       0                       # number of cycles access was blocked
system.l2.blocked_cycles::no_mshrs             650000                       # number of cycles access was blocked
system.l2.blocked_cycles::no_targets                0                       # number of cycles access was blocked
system.l2.cache_copies                              0                       # number of cache copies performed
system.l2.demand_accesses                     2600192                       # number of demand (read+write) accesses
system.l2.demand_avg_miss_latency        113498.460369                       # average overall miss latency
system.l2.demand_avg_mshr_miss_latency   98097.072831                       # average overall mshr miss latency
system.l2.demand_hits                          117130                       # number of demand (read+write) hits
system.l2.demand_miss_latency            281823714000                       # number of demand (read+write) miss cycles
system.l2.demand_miss_rate                   0.954953                       # miss rate for demand accesses
system.l2.demand_misses                       2483062                       # number of demand (read+write) misses
system.l2.demand_mshr_hits                      10705                       # number of demand (read+write) MSHR hits
system.l2.demand_mshr_miss_latency       242530788500                       # number of demand (read+write) MSHR miss cycles
system.l2.demand_mshr_miss_rate              0.950836                       # mshr miss rate for demand accesses
system.l2.demand_mshr_misses                  2472355                       # number of demand (read+write) MSHR misses
system.l2.fast_writes                               0                       # number of fast writes performed
system.l2.mshr_cap_events                           0                       # number of times MSHR cap was activated
system.l2.no_allocate_misses                        0                       # Number of misses that were no-allocate
system.l2.occ_%::0                           0.761193                       # Average percentage of cache occupancy
system.l2.occ_%::1                           0.051472                       # Average percentage of cache occupancy
system.l2.occ_blocks::0                  12471.379449                       # Average occupied blocks per context
system.l2.occ_blocks::1                    843.324113                       # Average occupied blocks per context
system.l2.overall_accesses                    2600192                       # number of overall (read+write) accesses
system.l2.overall_avg_miss_latency       113498.460369                       # average overall miss latency
system.l2.overall_avg_mshr_miss_latency  96125.426034                       # average overall mshr miss latency
system.l2.overall_avg_mshr_uncacheable_latency     no_value                       # average overall mshr uncacheable latency
system.l2.overall_hits                         117130                       # number of overall hits
system.l2.overall_miss_latency           281823714000                       # number of overall miss cycles
system.l2.overall_miss_rate                  0.954953                       # miss rate for overall accesses
system.l2.overall_misses                      2483062                       # number of overall misses
system.l2.overall_mshr_hits                     10705                       # number of overall MSHR hits
system.l2.overall_mshr_miss_latency      272423975276                       # number of overall MSHR miss cycles
system.l2.overall_mshr_miss_rate             1.089938                       # mshr miss rate for overall accesses
system.l2.overall_mshr_misses                 2834047                       # number of overall MSHR misses
system.l2.overall_mshr_uncacheable_latency            0                       # number of overall MSHR uncacheable cycles
system.l2.overall_mshr_uncacheable_misses            0                       # number of overall MSHR uncacheable misses
system.l2.prefetch_accuracy                  0.962158                       # ratio of good prefetches to total prefetches
system.l2.prefetch_hits                        348005                       # number of prefetched blocks that were accessed
system.l2.prefetcher.num_hwpf_already_in_prefetcher      1181375                       # number of hwpf that were already in the prefetch queue
system.l2.prefetcher.num_hwpf_evicted           10132                       # number of hwpf removed due to no buffer left
system.l2.prefetcher.num_hwpf_identified      1801252                       # number of hwpf identified
system.l2.prefetcher.num_hwpf_issued           361692                       # number of hwpf issued
system.l2.prefetcher.num_hwpf_removed_MSHR_hit       248053                       # number of hwpf removed because MSHR allocated
system.l2.prefetcher.num_hwpf_span_page             0                       # number of hwpf spanning a virtual page
system.l2.prefetcher.num_hwpf_squashed_from_miss            0                       # number of hwpf that got squashed due to a miss aborting calculation time
system.l2.replacements                        2481947                       # number of replacements
system.l2.sampled_refs                        2493156                       # Sample count of references to valid blocks.
system.l2.soft_prefetch_mshr_full                   0                       # number of mshr full events for SW prefetching instrutions
system.l2.tagsinuse                      13314.703562                       # Cycle average of tags in use
system.l2.total_refs                           962908                       # Total number of references to valid blocks.
system.l2.warmup_cycle                   502123514000                       # Cycle when the warmup percentage was hit.
system.l2.writebacks                           508564                       # number of writebacks
system.switch_cpus.dtb.data_accesses          2980716                       # DTB accesses
system.switch_cpus.dtb.data_acv                     0                       # DTB access violations
system.switch_cpus.dtb.data_hits              2962770                       # DTB hits
system.switch_cpus.dtb.data_misses              17946                       # DTB misses
system.switch_cpus.dtb.fetch_accesses               0                       # ITB accesses
system.switch_cpus.dtb.fetch_acv                    0                       # ITB acv
system.switch_cpus.dtb.fetch_hits                   0                       # ITB hits
system.switch_cpus.dtb.fetch_misses                 0                       # ITB misses
system.switch_cpus.dtb.read_accesses          2206932                       # DTB read accesses
system.switch_cpus.dtb.read_acv                     0                       # DTB read access violations
system.switch_cpus.dtb.read_hits              2189262                       # DTB read hits
system.switch_cpus.dtb.read_misses              17670                       # DTB read misses
system.switch_cpus.dtb.write_accesses          773784                       # DTB write accesses
system.switch_cpus.dtb.write_acv                    0                       # DTB write access violations
system.switch_cpus.dtb.write_hits              773508                       # DTB write hits
system.switch_cpus.dtb.write_misses               276                       # DTB write misses
system.switch_cpus.idle_fraction                    1                       # Percentage of idle cycles
system.switch_cpus.itb.data_accesses                0                       # DTB accesses
system.switch_cpus.itb.data_acv                     0                       # DTB access violations
system.switch_cpus.itb.data_hits                    0                       # DTB hits
system.switch_cpus.itb.data_misses                  0                       # DTB misses
system.switch_cpus.itb.fetch_accesses        10017952                       # ITB accesses
system.switch_cpus.itb.fetch_acv                    0                       # ITB acv
system.switch_cpus.itb.fetch_hits            10017948                       # ITB hits
system.switch_cpus.itb.fetch_misses                 4                       # ITB misses
system.switch_cpus.itb.read_accesses                0                       # DTB read accesses
system.switch_cpus.itb.read_acv                     0                       # DTB read access violations
system.switch_cpus.itb.read_hits                    0                       # DTB read hits
system.switch_cpus.itb.read_misses                  0                       # DTB read misses
system.switch_cpus.itb.write_accesses               0                       # DTB write accesses
system.switch_cpus.itb.write_acv                    0                       # DTB write access violations
system.switch_cpus.itb.write_hits                   0                       # DTB write hits
system.switch_cpus.itb.write_misses                 0                       # DTB write misses
system.switch_cpus.not_idle_fraction                0                       # Percentage of non-idle cycles
system.switch_cpus.numCycles                215281057                       # number of cpu cycles simulated
system.switch_cpus.num_insts                 10000001                       # Number of instructions executed
system.switch_cpus.num_refs                   3733211                       # Number of memory references
system.switch_cpus_1.BPredUnit.BTBCorrect            0                       # Number of correct BTB predictions (this stat may not work properly.
system.switch_cpus_1.BPredUnit.BTBHits        1463398                       # Number of BTB hits
system.switch_cpus_1.BPredUnit.BTBLookups      1597042                       # Number of BTB lookups
system.switch_cpus_1.BPredUnit.RASInCorrect            1                       # Number of incorrect RAS predictions.
system.switch_cpus_1.BPredUnit.condIncorrect       153620                       # Number of conditional branches incorrect
system.switch_cpus_1.BPredUnit.condPredicted      1642569                       # Number of conditional branches predicted
system.switch_cpus_1.BPredUnit.lookups        1715481                       # Number of BP lookups
system.switch_cpus_1.BPredUnit.usedRAS          26521                       # Number of times the RAS was used to get a target.
system.switch_cpus_1.commit.COM:branches      1112239                       # Number of branches committed
system.switch_cpus_1.commit.COM:bw_lim_events       592190                       # number cycles where commit BW limit reached
system.switch_cpus_1.commit.COM:bw_limited            0                       # number of insts not committed due to BW limits
system.switch_cpus_1.commit.COM:committed_per_cycle::samples     65114895                       # Number of insts commited each cycle
system.switch_cpus_1.commit.COM:committed_per_cycle::mean     0.156423                       # Number of insts commited each cycle
system.switch_cpus_1.commit.COM:committed_per_cycle::stdev     0.904547                       # Number of insts commited each cycle
system.switch_cpus_1.commit.COM:committed_per_cycle::underflows            0      0.00%      0.00% # Number of insts commited each cycle
system.switch_cpus_1.commit.COM:committed_per_cycle::0     61886578     95.04%     95.04% # Number of insts commited each cycle
system.switch_cpus_1.commit.COM:committed_per_cycle::1      1355750      2.08%     97.12% # Number of insts commited each cycle
system.switch_cpus_1.commit.COM:committed_per_cycle::2       577809      0.89%     98.01% # Number of insts commited each cycle
system.switch_cpus_1.commit.COM:committed_per_cycle::3       240055      0.37%     98.38% # Number of insts commited each cycle
system.switch_cpus_1.commit.COM:committed_per_cycle::4       278268      0.43%     98.81% # Number of insts commited each cycle
system.switch_cpus_1.commit.COM:committed_per_cycle::5        42533      0.07%     98.87% # Number of insts commited each cycle
system.switch_cpus_1.commit.COM:committed_per_cycle::6       101275      0.16%     99.03% # Number of insts commited each cycle
system.switch_cpus_1.commit.COM:committed_per_cycle::7        40437      0.06%     99.09% # Number of insts commited each cycle
system.switch_cpus_1.commit.COM:committed_per_cycle::8       592190      0.91%    100.00% # Number of insts commited each cycle
system.switch_cpus_1.commit.COM:committed_per_cycle::overflows            0      0.00%    100.00% # Number of insts commited each cycle
system.switch_cpus_1.commit.COM:committed_per_cycle::min_value            0                       # Number of insts commited each cycle
system.switch_cpus_1.commit.COM:committed_per_cycle::max_value            8                       # Number of insts commited each cycle
system.switch_cpus_1.commit.COM:committed_per_cycle::total     65114895                       # Number of insts commited each cycle
system.switch_cpus_1.commit.COM:count        10185499                       # Number of instructions committed
system.switch_cpus_1.commit.COM:loads         3006543                       # Number of loads committed
system.switch_cpus_1.commit.COM:membars             0                       # Number of memory barriers committed
system.switch_cpus_1.commit.COM:refs          3800350                       # Number of memory references committed
system.switch_cpus_1.commit.COM:swp_count            0                       # Number of s/w prefetches committed
system.switch_cpus_1.commit.branchMispredicts       153611                       # The number of times a branch was mispredicted
system.switch_cpus_1.commit.commitCommittedInsts     10185499                       # The number of committed instructions
system.switch_cpus_1.commit.commitSquashedInsts      7254781                       # The number of squashed insts skipped by commit
system.switch_cpus_1.committedInsts          10000006                       # Number of Instructions Simulated
system.switch_cpus_1.committedInsts_total     10000006                       # Number of Instructions Simulated
system.switch_cpus_1.cpi                     8.647298                       # CPI: Cycles Per Instruction
system.switch_cpus_1.cpi_total               8.647298                       # CPI: Total CPI of All Threads
system.switch_cpus_1.decode.DECODE:BlockedCycles     53300867                       # Number of cycles decode is blocked
system.switch_cpus_1.decode.DECODE:BranchMispred           10                       # Number of times decode detected a branch misprediction
system.switch_cpus_1.decode.DECODE:BranchResolved        45532                       # Number of times decode resolved a branch
system.switch_cpus_1.decode.DECODE:DecodedInsts     25829825                       # Number of instructions handled by decode
system.switch_cpus_1.decode.DECODE:IdleCycles      7483171                       # Number of cycles decode is idle
system.switch_cpus_1.decode.DECODE:RunCycles      4225903                       # Number of cycles decode is running
system.switch_cpus_1.decode.DECODE:SquashCycles      1236433                       # Number of cycles decode is squashing
system.switch_cpus_1.decode.DECODE:SquashedInsts           42                       # Number of squashed instructions handled by decode
system.switch_cpus_1.decode.DECODE:UnblockCycles       104953                       # Number of cycles decode is unblocking
system.switch_cpus_1.dtb.data_accesses        4754553                       # DTB accesses
system.switch_cpus_1.dtb.data_acv                   0                       # DTB access violations
system.switch_cpus_1.dtb.data_hits            4640144                       # DTB hits
system.switch_cpus_1.dtb.data_misses           114409                       # DTB misses
system.switch_cpus_1.dtb.fetch_accesses             0                       # ITB accesses
system.switch_cpus_1.dtb.fetch_acv                  0                       # ITB acv
system.switch_cpus_1.dtb.fetch_hits                 0                       # ITB hits
system.switch_cpus_1.dtb.fetch_misses               0                       # ITB misses
system.switch_cpus_1.dtb.read_accesses        3798442                       # DTB read accesses
system.switch_cpus_1.dtb.read_acv                   0                       # DTB read access violations
system.switch_cpus_1.dtb.read_hits            3686188                       # DTB read hits
system.switch_cpus_1.dtb.read_misses           112254                       # DTB read misses
system.switch_cpus_1.dtb.write_accesses        956111                       # DTB write accesses
system.switch_cpus_1.dtb.write_acv                  0                       # DTB write access violations
system.switch_cpus_1.dtb.write_hits            953956                       # DTB write hits
system.switch_cpus_1.dtb.write_misses            2155                       # DTB write misses
system.switch_cpus_1.fetch.Branches           1715481                       # Number of branches that fetch encountered
system.switch_cpus_1.fetch.CacheLines         3594211                       # Number of cache lines fetched
system.switch_cpus_1.fetch.Cycles             8034899                       # Number of cycles fetch has run and was not squashing or blocked
system.switch_cpus_1.fetch.IcacheSquashes       113311                       # Number of outstanding Icache misses that were squashed
system.switch_cpus_1.fetch.Insts             26514657                       # Number of instructions fetch has processed
system.switch_cpus_1.fetch.SquashCycles        722236                       # Number of cycles fetch has spent squashing
system.switch_cpus_1.fetch.branchRate        0.019838                       # Number of branch fetches per cycle
system.switch_cpus_1.fetch.icacheStallCycles      3594211                       # Number of cycles fetch is stalled on an Icache miss
system.switch_cpus_1.fetch.predictedBranches      1489919                       # Number of branches that fetch has predicted taken
system.switch_cpus_1.fetch.rate              0.306623                       # Number of inst fetches per cycle
system.switch_cpus_1.fetch.rateDist::samples     66351328                       # Number of instructions fetched each cycle (Total)
system.switch_cpus_1.fetch.rateDist::mean     0.399610                       # Number of instructions fetched each cycle (Total)
system.switch_cpus_1.fetch.rateDist::stdev     1.611982                       # Number of instructions fetched each cycle (Total)
system.switch_cpus_1.fetch.rateDist::underflows            0      0.00%      0.00% # Number of instructions fetched each cycle (Total)
system.switch_cpus_1.fetch.rateDist::0       61910652     93.31%     93.31% # Number of instructions fetched each cycle (Total)
system.switch_cpus_1.fetch.rateDist::1          73559      0.11%     93.42% # Number of instructions fetched each cycle (Total)
system.switch_cpus_1.fetch.rateDist::2         643338      0.97%     94.39% # Number of instructions fetched each cycle (Total)
system.switch_cpus_1.fetch.rateDist::3          68203      0.10%     94.49% # Number of instructions fetched each cycle (Total)
system.switch_cpus_1.fetch.rateDist::4         730442      1.10%     95.59% # Number of instructions fetched each cycle (Total)
system.switch_cpus_1.fetch.rateDist::5         129457      0.20%     95.79% # Number of instructions fetched each cycle (Total)
system.switch_cpus_1.fetch.rateDist::6         335387      0.51%     96.29% # Number of instructions fetched each cycle (Total)
system.switch_cpus_1.fetch.rateDist::7         313882      0.47%     96.77% # Number of instructions fetched each cycle (Total)
system.switch_cpus_1.fetch.rateDist::8        2146408      3.23%    100.00% # Number of instructions fetched each cycle (Total)
system.switch_cpus_1.fetch.rateDist::overflows            0      0.00%    100.00% # Number of instructions fetched each cycle (Total)
system.switch_cpus_1.fetch.rateDist::min_value            0                       # Number of instructions fetched each cycle (Total)
system.switch_cpus_1.fetch.rateDist::max_value            8                       # Number of instructions fetched each cycle (Total)
system.switch_cpus_1.fetch.rateDist::total     66351328                       # Number of instructions fetched each cycle (Total)
system.switch_cpus_1.idleCycles              20121708                       # Total number of cycles that the CPU has spent unscheduled due to idling
system.switch_cpus_1.iew.EXEC:branches        1212553                       # Number of branches executed
system.switch_cpus_1.iew.EXEC:nop              261720                       # number of nop insts executed
system.switch_cpus_1.iew.EXEC:rate           0.154176                       # Inst execution rate
system.switch_cpus_1.iew.EXEC:refs            6146613                       # number of memory reference insts executed
system.switch_cpus_1.iew.EXEC:stores           956111                       # Number of stores executed
system.switch_cpus_1.iew.EXEC:swp                   0                       # number of swp insts executed
system.switch_cpus_1.iew.WB:consumers         8274268                       # num instructions consuming a value
system.switch_cpus_1.iew.WB:count            11923894                       # cumulative count of insts written-back
system.switch_cpus_1.iew.WB:fanout           0.803774                       # average fanout of values written-back
system.switch_cpus_1.iew.WB:penalized               0                       # number of instrctions required to write to 'other' IQ
system.switch_cpus_1.iew.WB:penalized_rate            0                       # fraction of instructions written-back that wrote to 'other' IQ
system.switch_cpus_1.iew.WB:producers         6650640                       # num instructions producing a value
system.switch_cpus_1.iew.WB:rate             0.137891                       # insts written-back per cycle
system.switch_cpus_1.iew.WB:sent             12039509                       # cumulative count of insts sent to commit
system.switch_cpus_1.iew.branchMispredicts       154326                       # Number of branch mispredicts detected at execute
system.switch_cpus_1.iew.iewBlockCycles      43232685                       # Number of cycles IEW is blocking
system.switch_cpus_1.iew.iewDispLoadInsts      6009051                       # Number of dispatched load instructions
system.switch_cpus_1.iew.iewDispNonSpecInsts            0                       # Number of dispatched non-speculative instructions
system.switch_cpus_1.iew.iewDispSquashedInsts      2331933                       # Number of squashed instructions skipped by dispatch
system.switch_cpus_1.iew.iewDispStoreInsts      1673307                       # Number of dispatched store instructions
system.switch_cpus_1.iew.iewDispatchedInsts     17466337                       # Number of instructions dispatched to IQ
system.switch_cpus_1.iew.iewExecLoadInsts      5190502                       # Number of load instructions executed
system.switch_cpus_1.iew.iewExecSquashedInsts       964857                       # Number of squashed instructions skipped in execute
system.switch_cpus_1.iew.iewExecutedInsts     13332028                       # Number of executed instructions
system.switch_cpus_1.iew.iewIQFullEvents        54300                       # Number of times the IQ has become full, causing a stall
system.switch_cpus_1.iew.iewIdleCycles              0                       # Number of cycles IEW is idle
system.switch_cpus_1.iew.iewLSQFullEvents       199433                       # Number of times the LSQ has become full, causing a stall
system.switch_cpus_1.iew.iewSquashCycles      1236433                       # Number of cycles IEW is squashing
system.switch_cpus_1.iew.iewUnblockCycles       691157                       # Number of cycles IEW is unblocking
system.switch_cpus_1.iew.lsq.thread.0.blockedLoads            0                       # Number of blocked loads due to partial load-store forwarding
system.switch_cpus_1.iew.lsq.thread.0.cacheBlocked      1236643                       # Number of times an access to memory failed due to the cache being blocked
system.switch_cpus_1.iew.lsq.thread.0.forwLoads        52455                       # Number of loads that had data forwarded from stores
system.switch_cpus_1.iew.lsq.thread.0.ignoredResponses           19                       # Number of memory responses ignored because the instruction is squashed
system.switch_cpus_1.iew.lsq.thread.0.invAddrLoads            0                       # Number of loads ignored due to an invalid address
system.switch_cpus_1.iew.lsq.thread.0.invAddrSwpfs            0                       # Number of software prefetches ignored due to an invalid address
system.switch_cpus_1.iew.lsq.thread.0.memOrderViolation         4195                       # Number of memory ordering violations
system.switch_cpus_1.iew.lsq.thread.0.rescheduledLoads            0                       # Number of loads that were rescheduled
system.switch_cpus_1.iew.lsq.thread.0.squashedLoads      3002506                       # Number of loads squashed
system.switch_cpus_1.iew.lsq.thread.0.squashedStores       879499                       # Number of stores squashed
system.switch_cpus_1.iew.memOrderViolationEvents         4195                       # Number of memory order violations
system.switch_cpus_1.iew.predictedNotTakenIncorrect        21413                       # Number of branches that were predicted not taken incorrectly
system.switch_cpus_1.iew.predictedTakenIncorrect       132913                       # Number of branches that were predicted taken incorrectly
system.switch_cpus_1.ipc                     0.115643                       # IPC: Instructions Per Cycle
system.switch_cpus_1.ipc_total               0.115643                       # IPC: Total IPC of All Threads
system.switch_cpus_1.iq.ISSUE:FU_type_0::No_OpClass            0      0.00%      0.00% # Type of FU issued
system.switch_cpus_1.iq.ISSUE:FU_type_0::IntAlu      4940514     34.56%     34.56% # Type of FU issued
system.switch_cpus_1.iq.ISSUE:FU_type_0::IntMult            0      0.00%     34.56% # Type of FU issued
system.switch_cpus_1.iq.ISSUE:FU_type_0::IntDiv            0      0.00%     34.56% # Type of FU issued
system.switch_cpus_1.iq.ISSUE:FU_type_0::FloatAdd      1424147      9.96%     44.52% # Type of FU issued
system.switch_cpus_1.iq.ISSUE:FU_type_0::FloatCmp       151815      1.06%     45.58% # Type of FU issued
system.switch_cpus_1.iq.ISSUE:FU_type_0::FloatCvt        37528      0.26%     45.84% # Type of FU issued
system.switch_cpus_1.iq.ISSUE:FU_type_0::FloatMult      1286187      9.00%     54.84% # Type of FU issued
system.switch_cpus_1.iq.ISSUE:FU_type_0::FloatDiv            9      0.00%     54.84% # Type of FU issued
system.switch_cpus_1.iq.ISSUE:FU_type_0::FloatSqrt           14      0.00%     54.84% # Type of FU issued
system.switch_cpus_1.iq.ISSUE:FU_type_0::MemRead      5395488     37.74%     92.58% # Type of FU issued
system.switch_cpus_1.iq.ISSUE:FU_type_0::MemWrite      1061188      7.42%    100.00% # Type of FU issued
system.switch_cpus_1.iq.ISSUE:FU_type_0::IprAccess            0      0.00%    100.00% # Type of FU issued
system.switch_cpus_1.iq.ISSUE:FU_type_0::InstPrefetch            0      0.00%    100.00% # Type of FU issued
system.switch_cpus_1.iq.ISSUE:FU_type_0::total     14296890                       # Type of FU issued
system.switch_cpus_1.iq.ISSUE:fu_busy_cnt       313240                       # FU busy when requested
system.switch_cpus_1.iq.ISSUE:fu_busy_rate     0.021910                       # FU busy rate (busy events/executed inst)
system.switch_cpus_1.iq.ISSUE:fu_full::No_OpClass            0      0.00%      0.00% # attempts to use FU when none available
system.switch_cpus_1.iq.ISSUE:fu_full::IntAlu           19      0.01%      0.01% # attempts to use FU when none available
system.switch_cpus_1.iq.ISSUE:fu_full::IntMult            0      0.00%      0.01% # attempts to use FU when none available
system.switch_cpus_1.iq.ISSUE:fu_full::IntDiv            0      0.00%      0.01% # attempts to use FU when none available
system.switch_cpus_1.iq.ISSUE:fu_full::FloatAdd          408      0.13%      0.14% # attempts to use FU when none available
system.switch_cpus_1.iq.ISSUE:fu_full::FloatCmp         1405      0.45%      0.58% # attempts to use FU when none available
system.switch_cpus_1.iq.ISSUE:fu_full::FloatCvt            0      0.00%      0.58% # attempts to use FU when none available
system.switch_cpus_1.iq.ISSUE:fu_full::FloatMult       110034     35.13%     35.71% # attempts to use FU when none available
system.switch_cpus_1.iq.ISSUE:fu_full::FloatDiv            0      0.00%     35.71% # attempts to use FU when none available
system.switch_cpus_1.iq.ISSUE:fu_full::FloatSqrt            0      0.00%     35.71% # attempts to use FU when none available
system.switch_cpus_1.iq.ISSUE:fu_full::MemRead       146572     46.79%     82.50% # attempts to use FU when none available
system.switch_cpus_1.iq.ISSUE:fu_full::MemWrite        54802     17.50%    100.00% # attempts to use FU when none available
system.switch_cpus_1.iq.ISSUE:fu_full::IprAccess            0      0.00%    100.00% # attempts to use FU when none available
system.switch_cpus_1.iq.ISSUE:fu_full::InstPrefetch            0      0.00%    100.00% # attempts to use FU when none available
system.switch_cpus_1.iq.ISSUE:issued_per_cycle::samples     66351328                       # Number of insts issued each cycle
system.switch_cpus_1.iq.ISSUE:issued_per_cycle::mean     0.215473                       # Number of insts issued each cycle
system.switch_cpus_1.iq.ISSUE:issued_per_cycle::stdev     0.636749                       # Number of insts issued each cycle
system.switch_cpus_1.iq.ISSUE:issued_per_cycle::underflows            0      0.00%      0.00% # Number of insts issued each cycle
system.switch_cpus_1.iq.ISSUE:issued_per_cycle::0     56653542     85.38%     85.38% # Number of insts issued each cycle
system.switch_cpus_1.iq.ISSUE:issued_per_cycle::1      7086367     10.68%     96.06% # Number of insts issued each cycle
system.switch_cpus_1.iq.ISSUE:issued_per_cycle::2      1538219      2.32%     98.38% # Number of insts issued each cycle
system.switch_cpus_1.iq.ISSUE:issued_per_cycle::3       414736      0.63%     99.01% # Number of insts issued each cycle
system.switch_cpus_1.iq.ISSUE:issued_per_cycle::4       478563      0.72%     99.73% # Number of insts issued each cycle
system.switch_cpus_1.iq.ISSUE:issued_per_cycle::5       112348      0.17%     99.90% # Number of insts issued each cycle
system.switch_cpus_1.iq.ISSUE:issued_per_cycle::6        59914      0.09%     99.99% # Number of insts issued each cycle
system.switch_cpus_1.iq.ISSUE:issued_per_cycle::7         6711      0.01%    100.00% # Number of insts issued each cycle
system.switch_cpus_1.iq.ISSUE:issued_per_cycle::8          928      0.00%    100.00% # Number of insts issued each cycle
system.switch_cpus_1.iq.ISSUE:issued_per_cycle::overflows            0      0.00%    100.00% # Number of insts issued each cycle
system.switch_cpus_1.iq.ISSUE:issued_per_cycle::min_value            0                       # Number of insts issued each cycle
system.switch_cpus_1.iq.ISSUE:issued_per_cycle::max_value            8                       # Number of insts issued each cycle
system.switch_cpus_1.iq.ISSUE:issued_per_cycle::total     66351328                       # Number of insts issued each cycle
system.switch_cpus_1.iq.ISSUE:rate           0.165334                       # Inst issue rate
system.switch_cpus_1.iq.iqInstsAdded         17204617                       # Number of instructions added to the IQ (excludes non-spec)
system.switch_cpus_1.iq.iqInstsIssued        14296890                       # Number of instructions issued
system.switch_cpus_1.iq.iqSquashedInstsExamined      7202369                       # Number of squashed instructions iterated over during squash; mainly for profiling
system.switch_cpus_1.iq.iqSquashedInstsIssued       482712                       # Number of squashed instructions issued
system.switch_cpus_1.iq.iqSquashedOperandsExamined      7017537                       # Number of squashed operands that are examined and possibly removed from graph
system.switch_cpus_1.itb.data_accesses              0                       # DTB accesses
system.switch_cpus_1.itb.data_acv                   0                       # DTB access violations
system.switch_cpus_1.itb.data_hits                  0                       # DTB hits
system.switch_cpus_1.itb.data_misses                0                       # DTB misses
system.switch_cpus_1.itb.fetch_accesses       3594223                       # ITB accesses
system.switch_cpus_1.itb.fetch_acv                  0                       # ITB acv
system.switch_cpus_1.itb.fetch_hits           3594211                       # ITB hits
system.switch_cpus_1.itb.fetch_misses              12                       # ITB misses
system.switch_cpus_1.itb.read_accesses              0                       # DTB read accesses
system.switch_cpus_1.itb.read_acv                   0                       # DTB read access violations
system.switch_cpus_1.itb.read_hits                  0                       # DTB read hits
system.switch_cpus_1.itb.read_misses                0                       # DTB read misses
system.switch_cpus_1.itb.write_accesses             0                       # DTB write accesses
system.switch_cpus_1.itb.write_acv                  0                       # DTB write access violations
system.switch_cpus_1.itb.write_hits                 0                       # DTB write hits
system.switch_cpus_1.itb.write_misses               0                       # DTB write misses
system.switch_cpus_1.memDep0.conflictingLoads       806821                       # Number of conflicting loads.
system.switch_cpus_1.memDep0.conflictingStores       263881                       # Number of conflicting stores.
system.switch_cpus_1.memDep0.insertedLoads      6009051                       # Number of loads inserted to the mem dependence unit.
system.switch_cpus_1.memDep0.insertedStores      1673307                       # Number of stores inserted to the mem dependence unit.
system.switch_cpus_1.numCycles               86473036                       # number of cpu cycles simulated
system.switch_cpus_1.rename.RENAME:BlockCycles     50286157                       # Number of cycles rename is blocking
system.switch_cpus_1.rename.RENAME:CommittedMaps      7339943                       # Number of HB maps that are committed
system.switch_cpus_1.rename.RENAME:IQFullEvents       132910                       # Number of times rename has blocked due to IQ full
system.switch_cpus_1.rename.RENAME:IdleCycles      8081926                       # Number of cycles rename is idle
system.switch_cpus_1.rename.RENAME:LSQFullEvents      2753641                       # Number of times rename has blocked due to LSQ full
system.switch_cpus_1.rename.RENAME:ROBFullEvents        95737                       # Number of times rename has blocked due to ROB full
system.switch_cpus_1.rename.RENAME:RenameLookups     35766227                       # Number of register rename lookups that rename has made
system.switch_cpus_1.rename.RENAME:RenamedInsts     23818015                       # Number of instructions processed by rename
system.switch_cpus_1.rename.RENAME:RenamedOperands     16328581                       # Number of destination operands rename has renamed
system.switch_cpus_1.rename.RENAME:RunCycles      3789483                       # Number of cycles rename is running
system.switch_cpus_1.rename.RENAME:SquashCycles      1236433                       # Number of cycles rename is squashing
system.switch_cpus_1.rename.RENAME:UnblockCycles      2957328                       # Number of cycles rename is unblocking
system.switch_cpus_1.rename.RENAME:UndoneMaps      8988615                       # Number of HB maps that are undone due to squashing
system.switch_cpus_1.rename.RENAME:serializeStallCycles            0                       # count of cycles rename stalled for serializing inst
system.switch_cpus_1.rename.RENAME:serializingInsts            0                       # count of serializing insts renamed
system.switch_cpus_1.rename.RENAME:skidInsts      5290119                       # count of insts added to the skid buffer
system.switch_cpus_1.rename.RENAME:tempSerializingInsts            0                       # count of temporary serializing insts renamed
system.switch_cpus_1.timesIdled                415756                       # Number of times that the entire CPU went into an idle state and unscheduled itself

---------- End Simulation Statistics   ----------
