
---------- Begin Simulation Statistics ----------
host_inst_rate                                 305397                       # Simulator instruction rate (inst/s)
host_mem_usage                                 386508                       # Number of bytes of host memory used
host_seconds                                    65.49                       # Real time elapsed on the host
host_tick_rate                              954698266                       # Simulator tick rate (ticks/s)
sim_freq                                 1000000000000                       # Frequency of simulated ticks
sim_insts                                    20000008                       # Number of instructions simulated
sim_seconds                                  0.062522                       # Number of seconds simulated
sim_ticks                                 62522007500                       # Number of ticks simulated
system.cpu.dcache.ReadReq_accesses            7237430                       # number of ReadReq accesses(hits+misses)
system.cpu.dcache.ReadReq_avg_miss_latency 68852.641193                       # average ReadReq miss latency
system.cpu.dcache.ReadReq_avg_mshr_miss_latency 69148.532517                       # average ReadReq mshr miss latency
system.cpu.dcache.ReadReq_hits                6153450                       # number of ReadReq hits
system.cpu.dcache.ReadReq_miss_latency    74634886000                       # number of ReadReq miss cycles
system.cpu.dcache.ReadReq_miss_rate          0.149774                       # miss rate for ReadReq accesses
system.cpu.dcache.ReadReq_misses              1083980                       # number of ReadReq misses
system.cpu.dcache.ReadReq_mshr_hits            490173                       # number of ReadReq MSHR hits
system.cpu.dcache.ReadReq_mshr_miss_latency  41060813500                       # number of ReadReq MSHR miss cycles
system.cpu.dcache.ReadReq_mshr_miss_rate     0.082047                       # mshr miss rate for ReadReq accesses
system.cpu.dcache.ReadReq_mshr_misses          593806                       # number of ReadReq MSHR misses
system.cpu.dcache.WriteReq_accesses           1244859                       # number of WriteReq accesses(hits+misses)
system.cpu.dcache.WriteReq_avg_miss_latency 72129.120780                       # average WriteReq miss latency
system.cpu.dcache.WriteReq_avg_mshr_miss_latency 69471.375276                       # average WriteReq mshr miss latency
system.cpu.dcache.WriteReq_hits                840273                       # number of WriteReq hits
system.cpu.dcache.WriteReq_miss_latency   29182432460                       # number of WriteReq miss cycles
system.cpu.dcache.WriteReq_miss_rate         0.325005                       # miss rate for WriteReq accesses
system.cpu.dcache.WriteReq_misses              404586                       # number of WriteReq misses
system.cpu.dcache.WriteReq_mshr_hits           156182                       # number of WriteReq MSHR hits
system.cpu.dcache.WriteReq_mshr_miss_latency  17256967504                       # number of WriteReq MSHR miss cycles
system.cpu.dcache.WriteReq_mshr_miss_rate     0.199544                       # mshr miss rate for WriteReq accesses
system.cpu.dcache.WriteReq_mshr_misses         248404                       # number of WriteReq MSHR misses
system.cpu.dcache.avg_blocked_cycles::no_mshrs     no_value                       # average number of cycles each access was blocked
system.cpu.dcache.avg_blocked_cycles::no_targets 52416.919025                       # average number of cycles each access was blocked
system.cpu.dcache.avg_refs                  12.592448                       # Average number of references to valid blocks.
system.cpu.dcache.blocked::no_mshrs                 0                       # number of cycles access was blocked
system.cpu.dcache.blocked::no_targets           91905                       # number of cycles access was blocked
system.cpu.dcache.blocked_cycles::no_mshrs            0                       # number of cycles access was blocked
system.cpu.dcache.blocked_cycles::no_targets   4817376943                       # number of cycles access was blocked
system.cpu.dcache.cache_copies                      0                       # number of cache copies performed
system.cpu.dcache.demand_accesses             8482289                       # number of demand (read+write) accesses
system.cpu.dcache.demand_avg_miss_latency 69743.174612                       # average overall miss latency
system.cpu.dcache.demand_avg_mshr_miss_latency 69243.752751                       # average overall mshr miss latency
system.cpu.dcache.demand_hits                 6993723                       # number of demand (read+write) hits
system.cpu.dcache.demand_miss_latency    103817318460                       # number of demand (read+write) miss cycles
system.cpu.dcache.demand_miss_rate           0.175491                       # miss rate for demand accesses
system.cpu.dcache.demand_misses               1488566                       # number of demand (read+write) misses
system.cpu.dcache.demand_mshr_hits             646355                       # number of demand (read+write) MSHR hits
system.cpu.dcache.demand_mshr_miss_latency  58317781004                       # number of demand (read+write) MSHR miss cycles
system.cpu.dcache.demand_mshr_miss_rate      0.099290                       # mshr miss rate for demand accesses
system.cpu.dcache.demand_mshr_misses           842210                       # number of demand (read+write) MSHR misses
system.cpu.dcache.fast_writes                       0                       # number of fast writes performed
system.cpu.dcache.mshr_cap_events                   0                       # number of times MSHR cap was activated
system.cpu.dcache.no_allocate_misses                0                       # Number of misses that were no-allocate
system.cpu.dcache.occ_%::0                   0.997738                       # Average percentage of cache occupancy
system.cpu.dcache.occ_blocks::0           1021.683258                       # Average occupied blocks per context
system.cpu.dcache.overall_accesses            8482289                       # number of overall (read+write) accesses
system.cpu.dcache.overall_avg_miss_latency 69743.174612                       # average overall miss latency
system.cpu.dcache.overall_avg_mshr_miss_latency 69243.752751                       # average overall mshr miss latency
system.cpu.dcache.overall_avg_mshr_uncacheable_latency     no_value                       # average overall mshr uncacheable latency
system.cpu.dcache.overall_hits                6993723                       # number of overall hits
system.cpu.dcache.overall_miss_latency   103817318460                       # number of overall miss cycles
system.cpu.dcache.overall_miss_rate          0.175491                       # miss rate for overall accesses
system.cpu.dcache.overall_misses              1488566                       # number of overall misses
system.cpu.dcache.overall_mshr_hits            646355                       # number of overall MSHR hits
system.cpu.dcache.overall_mshr_miss_latency  58317781004                       # number of overall MSHR miss cycles
system.cpu.dcache.overall_mshr_miss_rate     0.099290                       # mshr miss rate for overall accesses
system.cpu.dcache.overall_mshr_misses          842210                       # number of overall MSHR misses
system.cpu.dcache.overall_mshr_uncacheable_latency            0                       # number of overall MSHR uncacheable cycles
system.cpu.dcache.overall_mshr_uncacheable_misses            0                       # number of overall MSHR uncacheable misses
system.cpu.dcache.prefetch_accuracy          no_value                       # ratio of good prefetches to total prefetches
system.cpu.dcache.prefetch_hits                     0                       # number of prefetched blocks that were accessed
system.cpu.dcache.replacements                 592794                       # number of replacements
system.cpu.dcache.sampled_refs                 593818                       # Sample count of references to valid blocks.
system.cpu.dcache.soft_prefetch_mshr_full            0                       # number of mshr full events for SW prefetching instrutions
system.cpu.dcache.tagsinuse               1021.683258                       # Cycle average of tags in use
system.cpu.dcache.total_refs                  7477622                       # Total number of references to valid blocks.
system.cpu.dcache.warmup_cycle           501366790000                       # Cycle when the warmup percentage was hit.
system.cpu.dcache.writebacks                   248402                       # number of writebacks
system.cpu.dtb.data_accesses                        1                       # DTB accesses
system.cpu.dtb.data_acv                             0                       # DTB access violations
system.cpu.dtb.data_hits                            1                       # DTB hits
system.cpu.dtb.data_misses                          0                       # DTB misses
system.cpu.dtb.fetch_accesses                       0                       # ITB accesses
system.cpu.dtb.fetch_acv                            0                       # ITB acv
system.cpu.dtb.fetch_hits                           0                       # ITB hits
system.cpu.dtb.fetch_misses                         0                       # ITB misses
system.cpu.dtb.read_accesses                        1                       # DTB read accesses
system.cpu.dtb.read_acv                             0                       # DTB read access violations
system.cpu.dtb.read_hits                            1                       # DTB read hits
system.cpu.dtb.read_misses                          0                       # DTB read misses
system.cpu.dtb.write_accesses                       0                       # DTB write accesses
system.cpu.dtb.write_acv                            0                       # DTB write access violations
system.cpu.dtb.write_hits                           0                       # DTB write hits
system.cpu.dtb.write_misses                         0                       # DTB write misses
system.cpu.icache.ReadReq_accesses           13253673                       # number of ReadReq accesses(hits+misses)
system.cpu.icache.ReadReq_avg_miss_latency 72031.019202                       # average ReadReq miss latency
system.cpu.icache.ReadReq_avg_mshr_miss_latency 69943.561208                       # average ReadReq mshr miss latency
system.cpu.icache.ReadReq_hits               13252996                       # number of ReadReq hits
system.cpu.icache.ReadReq_miss_latency       48765000                       # number of ReadReq miss cycles
system.cpu.icache.ReadReq_miss_rate          0.000051                       # miss rate for ReadReq accesses
system.cpu.icache.ReadReq_misses                  677                       # number of ReadReq misses
system.cpu.icache.ReadReq_mshr_hits                46                       # number of ReadReq MSHR hits
system.cpu.icache.ReadReq_mshr_miss_latency     43994500                       # number of ReadReq MSHR miss cycles
system.cpu.icache.ReadReq_mshr_miss_rate     0.000047                       # mshr miss rate for ReadReq accesses
system.cpu.icache.ReadReq_mshr_misses             629                       # number of ReadReq MSHR misses
system.cpu.icache.avg_blocked_cycles::no_mshrs     no_value                       # average number of cycles each access was blocked
system.cpu.icache.avg_blocked_cycles::no_targets 60916.666667                       # average number of cycles each access was blocked
system.cpu.icache.avg_refs               21003.163233                       # Average number of references to valid blocks.
system.cpu.icache.blocked::no_mshrs                 0                       # number of cycles access was blocked
system.cpu.icache.blocked::no_targets               6                       # number of cycles access was blocked
system.cpu.icache.blocked_cycles::no_mshrs            0                       # number of cycles access was blocked
system.cpu.icache.blocked_cycles::no_targets       365500                       # number of cycles access was blocked
system.cpu.icache.cache_copies                      0                       # number of cache copies performed
system.cpu.icache.demand_accesses            13253673                       # number of demand (read+write) accesses
system.cpu.icache.demand_avg_miss_latency 72031.019202                       # average overall miss latency
system.cpu.icache.demand_avg_mshr_miss_latency 69943.561208                       # average overall mshr miss latency
system.cpu.icache.demand_hits                13252996                       # number of demand (read+write) hits
system.cpu.icache.demand_miss_latency        48765000                       # number of demand (read+write) miss cycles
system.cpu.icache.demand_miss_rate           0.000051                       # miss rate for demand accesses
system.cpu.icache.demand_misses                   677                       # number of demand (read+write) misses
system.cpu.icache.demand_mshr_hits                 46                       # number of demand (read+write) MSHR hits
system.cpu.icache.demand_mshr_miss_latency     43994500                       # number of demand (read+write) MSHR miss cycles
system.cpu.icache.demand_mshr_miss_rate      0.000047                       # mshr miss rate for demand accesses
system.cpu.icache.demand_mshr_misses              629                       # number of demand (read+write) MSHR misses
system.cpu.icache.fast_writes                       0                       # number of fast writes performed
system.cpu.icache.mshr_cap_events                   0                       # number of times MSHR cap was activated
system.cpu.icache.no_allocate_misses                0                       # Number of misses that were no-allocate
system.cpu.icache.occ_%::0                   0.707311                       # Average percentage of cache occupancy
system.cpu.icache.occ_blocks::0            362.143264                       # Average occupied blocks per context
system.cpu.icache.overall_accesses           13253673                       # number of overall (read+write) accesses
system.cpu.icache.overall_avg_miss_latency 72031.019202                       # average overall miss latency
system.cpu.icache.overall_avg_mshr_miss_latency 69943.561208                       # average overall mshr miss latency
system.cpu.icache.overall_avg_mshr_uncacheable_latency     no_value                       # average overall mshr uncacheable latency
system.cpu.icache.overall_hits               13252996                       # number of overall hits
system.cpu.icache.overall_miss_latency       48765000                       # number of overall miss cycles
system.cpu.icache.overall_miss_rate          0.000051                       # miss rate for overall accesses
system.cpu.icache.overall_misses                  677                       # number of overall misses
system.cpu.icache.overall_mshr_hits                46                       # number of overall MSHR hits
system.cpu.icache.overall_mshr_miss_latency     43994500                       # number of overall MSHR miss cycles
system.cpu.icache.overall_mshr_miss_rate     0.000047                       # mshr miss rate for overall accesses
system.cpu.icache.overall_mshr_misses             629                       # number of overall MSHR misses
system.cpu.icache.overall_mshr_uncacheable_latency            0                       # number of overall MSHR uncacheable cycles
system.cpu.icache.overall_mshr_uncacheable_misses            0                       # number of overall MSHR uncacheable misses
system.cpu.icache.prefetch_accuracy          no_value                       # ratio of good prefetches to total prefetches
system.cpu.icache.prefetch_hits                     0                       # number of prefetched blocks that were accessed
system.cpu.icache.replacements                    119                       # number of replacements
system.cpu.icache.sampled_refs                    631                       # Sample count of references to valid blocks.
system.cpu.icache.soft_prefetch_mshr_full            0                       # number of mshr full events for SW prefetching instrutions
system.cpu.icache.tagsinuse                362.143264                       # Cycle average of tags in use
system.cpu.icache.total_refs                 13252996                       # Total number of references to valid blocks.
system.cpu.icache.warmup_cycle           560514800000                       # Cycle when the warmup percentage was hit.
system.cpu.icache.writebacks                        0                       # number of writebacks
system.cpu.idle_fraction                            0                       # Percentage of idle cycles
system.cpu.itb.data_accesses                        0                       # DTB accesses
system.cpu.itb.data_acv                             0                       # DTB access violations
system.cpu.itb.data_hits                            0                       # DTB hits
system.cpu.itb.data_misses                          0                       # DTB misses
system.cpu.itb.fetch_accesses                       2                       # ITB accesses
system.cpu.itb.fetch_acv                            0                       # ITB acv
system.cpu.itb.fetch_hits                           2                       # ITB hits
system.cpu.itb.fetch_misses                         0                       # ITB misses
system.cpu.itb.read_accesses                        0                       # DTB read accesses
system.cpu.itb.read_acv                             0                       # DTB read access violations
system.cpu.itb.read_hits                            0                       # DTB read hits
system.cpu.itb.read_misses                          0                       # DTB read misses
system.cpu.itb.write_accesses                       0                       # DTB write accesses
system.cpu.itb.write_acv                            0                       # DTB write access violations
system.cpu.itb.write_hits                           0                       # DTB write hits
system.cpu.itb.write_misses                         0                       # DTB write misses
system.cpu.not_idle_fraction                        1                       # Percentage of non-idle cycles
system.cpu.numCycles                                2                       # number of cpu cycles simulated
system.cpu.num_insts                                2                       # Number of instructions executed
system.cpu.num_refs                                 1                       # Number of memory references
system.cpu.workload.PROG:num_syscalls               0                       # Number of system calls
system.l2.HardPFReq_avg_mshr_miss_latency 76361.298567                       # average HardPFReq mshr miss latency
system.l2.HardPFReq_mshr_miss_latency     24134217496                       # number of HardPFReq MSHR miss cycles
system.l2.HardPFReq_mshr_miss_rate                inf                       # mshr miss rate for HardPFReq accesses
system.l2.HardPFReq_mshr_misses                316053                       # number of HardPFReq MSHR misses
system.l2.ReadExReq_accesses                       11                       # number of ReadExReq accesses(hits+misses)
system.l2.ReadExReq_avg_miss_latency            75500                       # average ReadExReq miss latency
system.l2.ReadExReq_avg_mshr_miss_latency        60250                       # average ReadExReq mshr miss latency
system.l2.ReadExReq_hits                            1                       # number of ReadExReq hits
system.l2.ReadExReq_miss_latency               755000                       # number of ReadExReq miss cycles
system.l2.ReadExReq_miss_rate                0.909091                       # miss rate for ReadExReq accesses
system.l2.ReadExReq_misses                         10                       # number of ReadExReq misses
system.l2.ReadExReq_mshr_miss_latency          602500                       # number of ReadExReq MSHR miss cycles
system.l2.ReadExReq_mshr_miss_rate           0.909091                       # mshr miss rate for ReadExReq accesses
system.l2.ReadExReq_mshr_misses                    10                       # number of ReadExReq MSHR misses
system.l2.ReadReq_accesses                     594438                       # number of ReadReq accesses(hits+misses)
system.l2.ReadReq_avg_miss_latency       72764.723249                       # average ReadReq miss latency
system.l2.ReadReq_avg_mshr_miss_latency  57877.469580                       # average ReadReq mshr miss latency
system.l2.ReadReq_hits                          45731                       # number of ReadReq hits
system.l2.ReadReq_miss_latency            39926513000                       # number of ReadReq miss cycles
system.l2.ReadReq_miss_rate                  0.923069                       # miss rate for ReadReq accesses
system.l2.ReadReq_misses                       548707                       # number of ReadReq misses
system.l2.ReadReq_mshr_hits                     16073                       # number of ReadReq MSHR hits
system.l2.ReadReq_mshr_miss_latency       30827334500                       # number of ReadReq MSHR miss cycles
system.l2.ReadReq_mshr_miss_rate             0.896024                       # mshr miss rate for ReadReq accesses
system.l2.ReadReq_mshr_misses                  532631                       # number of ReadReq MSHR misses
system.l2.UpgradeReq_accesses                  248393                       # number of UpgradeReq accesses(hits+misses)
system.l2.UpgradeReq_avg_miss_latency    68443.984810                       # average UpgradeReq miss latency
system.l2.UpgradeReq_avg_mshr_miss_latency 52770.676794                       # average UpgradeReq mshr miss latency
system.l2.UpgradeReq_miss_latency         17001006719                       # number of UpgradeReq miss cycles
system.l2.UpgradeReq_miss_rate                      1                       # miss rate for UpgradeReq accesses
system.l2.UpgradeReq_misses                    248393                       # number of UpgradeReq misses
system.l2.UpgradeReq_mshr_miss_latency    13107866721                       # number of UpgradeReq MSHR miss cycles
system.l2.UpgradeReq_mshr_miss_rate                 1                       # mshr miss rate for UpgradeReq accesses
system.l2.UpgradeReq_mshr_misses               248393                       # number of UpgradeReq MSHR misses
system.l2.Writeback_accesses                   248402                       # number of Writeback accesses(hits+misses)
system.l2.Writeback_hits                       248402                       # number of Writeback hits
system.l2.avg_blocked_cycles::no_mshrs       no_value                       # average number of cycles each access was blocked
system.l2.avg_blocked_cycles::no_targets     no_value                       # average number of cycles each access was blocked
system.l2.avg_refs                           0.878038                       # Average number of references to valid blocks.
system.l2.blocked::no_mshrs                         0                       # number of cycles access was blocked
system.l2.blocked::no_targets                       0                       # number of cycles access was blocked
system.l2.blocked_cycles::no_mshrs                  0                       # number of cycles access was blocked
system.l2.blocked_cycles::no_targets                0                       # number of cycles access was blocked
system.l2.cache_copies                              0                       # number of cache copies performed
system.l2.demand_accesses                      594449                       # number of demand (read+write) accesses
system.l2.demand_avg_miss_latency        72764.773098                       # average overall miss latency
system.l2.demand_avg_mshr_miss_latency   57877.514123                       # average overall mshr miss latency
system.l2.demand_hits                           45732                       # number of demand (read+write) hits
system.l2.demand_miss_latency             39927268000                       # number of demand (read+write) miss cycles
system.l2.demand_miss_rate                   0.923068                       # miss rate for demand accesses
system.l2.demand_misses                        548717                       # number of demand (read+write) misses
system.l2.demand_mshr_hits                      16073                       # number of demand (read+write) MSHR hits
system.l2.demand_mshr_miss_latency        30827937000                       # number of demand (read+write) MSHR miss cycles
system.l2.demand_mshr_miss_rate              0.896025                       # mshr miss rate for demand accesses
system.l2.demand_mshr_misses                   532641                       # number of demand (read+write) MSHR misses
system.l2.fast_writes                               0                       # number of fast writes performed
system.l2.mshr_cap_events                           0                       # number of times MSHR cap was activated
system.l2.no_allocate_misses                        0                       # Number of misses that were no-allocate
system.l2.occ_%::0                           0.672713                       # Average percentage of cache occupancy
system.l2.occ_%::1                           0.011732                       # Average percentage of cache occupancy
system.l2.occ_blocks::0                  11021.727426                       # Average occupied blocks per context
system.l2.occ_blocks::1                    192.220679                       # Average occupied blocks per context
system.l2.overall_accesses                     594449                       # number of overall (read+write) accesses
system.l2.overall_avg_miss_latency       72764.773098                       # average overall miss latency
system.l2.overall_avg_mshr_miss_latency  64760.861389                       # average overall mshr miss latency
system.l2.overall_avg_mshr_uncacheable_latency     no_value                       # average overall mshr uncacheable latency
system.l2.overall_hits                          45732                       # number of overall hits
system.l2.overall_miss_latency            39927268000                       # number of overall miss cycles
system.l2.overall_miss_rate                  0.923068                       # miss rate for overall accesses
system.l2.overall_misses                       548717                       # number of overall misses
system.l2.overall_mshr_hits                     16073                       # number of overall MSHR hits
system.l2.overall_mshr_miss_latency       54962154496                       # number of overall MSHR miss cycles
system.l2.overall_mshr_miss_rate             1.427699                       # mshr miss rate for overall accesses
system.l2.overall_mshr_misses                  848694                       # number of overall MSHR misses
system.l2.overall_mshr_uncacheable_latency            0                       # number of overall MSHR uncacheable cycles
system.l2.overall_mshr_uncacheable_misses            0                       # number of overall MSHR uncacheable misses
system.l2.prefetch_accuracy                  0.904013                       # ratio of good prefetches to total prefetches
system.l2.prefetch_hits                        285716                       # number of prefetched blocks that were accessed
system.l2.prefetcher.num_hwpf_already_in_prefetcher       173891                       # number of hwpf that were already in the prefetch queue
system.l2.prefetcher.num_hwpf_evicted               0                       # number of hwpf removed due to no buffer left
system.l2.prefetcher.num_hwpf_identified       521351                       # number of hwpf identified
system.l2.prefetcher.num_hwpf_issued           316053                       # number of hwpf issued
system.l2.prefetcher.num_hwpf_removed_MSHR_hit        31406                       # number of hwpf removed because MSHR allocated
system.l2.prefetcher.num_hwpf_span_page             0                       # number of hwpf spanning a virtual page
system.l2.prefetcher.num_hwpf_squashed_from_miss            0                       # number of hwpf that got squashed due to a miss aborting calculation time
system.l2.replacements                         592134                       # number of replacements
system.l2.sampled_refs                         608518                       # Sample count of references to valid blocks.
system.l2.soft_prefetch_mshr_full                   0                       # number of mshr full events for SW prefetching instrutions
system.l2.tagsinuse                      11213.948104                       # Cycle average of tags in use
system.l2.total_refs                           534302                       # Total number of references to valid blocks.
system.l2.warmup_cycle                   561672815000                       # Cycle when the warmup percentage was hit.
system.l2.writebacks                           248402                       # number of writebacks
system.switch_cpus.dtb.data_accesses          4326978                       # DTB accesses
system.switch_cpus.dtb.data_acv                     0                       # DTB access violations
system.switch_cpus.dtb.data_hits              4306851                       # DTB hits
system.switch_cpus.dtb.data_misses              20127                       # DTB misses
system.switch_cpus.dtb.fetch_accesses               0                       # ITB accesses
system.switch_cpus.dtb.fetch_acv                    0                       # ITB acv
system.switch_cpus.dtb.fetch_hits                   0                       # ITB hits
system.switch_cpus.dtb.fetch_misses                 0                       # ITB misses
system.switch_cpus.dtb.read_accesses          3637064                       # DTB read accesses
system.switch_cpus.dtb.read_acv                     0                       # DTB read access violations
system.switch_cpus.dtb.read_hits              3616995                       # DTB read hits
system.switch_cpus.dtb.read_misses              20069                       # DTB read misses
system.switch_cpus.dtb.write_accesses          689914                       # DTB write accesses
system.switch_cpus.dtb.write_acv                    0                       # DTB write access violations
system.switch_cpus.dtb.write_hits              689856                       # DTB write hits
system.switch_cpus.dtb.write_misses                58                       # DTB write misses
system.switch_cpus.idle_fraction                    1                       # Percentage of idle cycles
system.switch_cpus.itb.data_accesses                0                       # DTB accesses
system.switch_cpus.itb.data_acv                     0                       # DTB access violations
system.switch_cpus.itb.data_hits                    0                       # DTB hits
system.switch_cpus.itb.data_misses                  0                       # DTB misses
system.switch_cpus.itb.fetch_accesses        10020134                       # ITB accesses
system.switch_cpus.itb.fetch_acv                    0                       # ITB acv
system.switch_cpus.itb.fetch_hits            10020129                       # ITB hits
system.switch_cpus.itb.fetch_misses                 5                       # ITB misses
system.switch_cpus.itb.read_accesses                0                       # DTB read accesses
system.switch_cpus.itb.read_acv                     0                       # DTB read access violations
system.switch_cpus.itb.read_hits                    0                       # DTB read hits
system.switch_cpus.itb.read_misses                  0                       # DTB read misses
system.switch_cpus.itb.write_accesses               0                       # DTB write accesses
system.switch_cpus.itb.write_acv                    0                       # DTB write access violations
system.switch_cpus.itb.write_hits                   0                       # DTB write hits
system.switch_cpus.itb.write_misses                 0                       # DTB write misses
system.switch_cpus.not_idle_fraction                0                       # Percentage of non-idle cycles
system.switch_cpus.numCycles                100485419                       # number of cpu cycles simulated
system.switch_cpus.num_insts                 10000001                       # Number of instructions executed
system.switch_cpus.num_refs                   4821338                       # Number of memory references
system.switch_cpus_1.BPredUnit.BTBCorrect            0                       # Number of correct BTB predictions (this stat may not work properly.
system.switch_cpus_1.BPredUnit.BTBHits         111736                       # Number of BTB hits
system.switch_cpus_1.BPredUnit.BTBLookups       153515                       # Number of BTB lookups
system.switch_cpus_1.BPredUnit.RASInCorrect            1                       # Number of incorrect RAS predictions.
system.switch_cpus_1.BPredUnit.condIncorrect        15508                       # Number of conditional branches incorrect
system.switch_cpus_1.BPredUnit.condPredicted       194238                       # Number of conditional branches predicted
system.switch_cpus_1.BPredUnit.lookups         207465                       # Number of BP lookups
system.switch_cpus_1.BPredUnit.usedRAS             10                       # Number of times the RAS was used to get a target.
system.switch_cpus_1.commit.COM:branches       149702                       # Number of branches committed
system.switch_cpus_1.commit.COM:bw_lim_events       730261                       # number cycles where commit BW limit reached
system.switch_cpus_1.commit.COM:bw_limited            0                       # number of insts not committed due to BW limits
system.switch_cpus_1.commit.COM:committed_per_cycle::samples     19937499                       # Number of insts commited each cycle
system.switch_cpus_1.commit.COM:committed_per_cycle::mean     0.503563                       # Number of insts commited each cycle
system.switch_cpus_1.commit.COM:committed_per_cycle::stdev     1.727948                       # Number of insts commited each cycle
system.switch_cpus_1.commit.COM:committed_per_cycle::underflows            0      0.00%      0.00% # Number of insts commited each cycle
system.switch_cpus_1.commit.COM:committed_per_cycle::0     17926917     89.92%     89.92% # Number of insts commited each cycle
system.switch_cpus_1.commit.COM:committed_per_cycle::1       249928      1.25%     91.17% # Number of insts commited each cycle
system.switch_cpus_1.commit.COM:committed_per_cycle::2       247902      1.24%     92.41% # Number of insts commited each cycle
system.switch_cpus_1.commit.COM:committed_per_cycle::3       258351      1.30%     93.71% # Number of insts commited each cycle
system.switch_cpus_1.commit.COM:committed_per_cycle::4       205502      1.03%     94.74% # Number of insts commited each cycle
system.switch_cpus_1.commit.COM:committed_per_cycle::5       131302      0.66%     95.40% # Number of insts commited each cycle
system.switch_cpus_1.commit.COM:committed_per_cycle::6       112947      0.57%     95.96% # Number of insts commited each cycle
system.switch_cpus_1.commit.COM:committed_per_cycle::7        74389      0.37%     96.34% # Number of insts commited each cycle
system.switch_cpus_1.commit.COM:committed_per_cycle::8       730261      3.66%    100.00% # Number of insts commited each cycle
system.switch_cpus_1.commit.COM:committed_per_cycle::overflows            0      0.00%    100.00% # Number of insts commited each cycle
system.switch_cpus_1.commit.COM:committed_per_cycle::min_value            0                       # Number of insts commited each cycle
system.switch_cpus_1.commit.COM:committed_per_cycle::max_value            8                       # Number of insts commited each cycle
system.switch_cpus_1.commit.COM:committed_per_cycle::total     19937499                       # Number of insts commited each cycle
system.switch_cpus_1.commit.COM:count        10039796                       # Number of instructions committed
system.switch_cpus_1.commit.COM:loads         3597948                       # Number of loads committed
system.switch_cpus_1.commit.COM:membars             0                       # Number of memory barriers committed
system.switch_cpus_1.commit.COM:refs          4152951                       # Number of memory references committed
system.switch_cpus_1.commit.COM:swp_count            0                       # Number of s/w prefetches committed
system.switch_cpus_1.commit.branchMispredicts        15505                       # The number of times a branch was mispredicted
system.switch_cpus_1.commit.commitCommittedInsts     10039796                       # The number of committed instructions
system.switch_cpus_1.commit.commitSquashedInsts      9303018                       # The number of squashed insts skipped by commit
system.switch_cpus_1.committedInsts          10000005                       # Number of Instructions Simulated
system.switch_cpus_1.committedInsts_total     10000005                       # Number of Instructions Simulated
system.switch_cpus_1.cpi                     2.455858                       # CPI: Cycles Per Instruction
system.switch_cpus_1.cpi_total               2.455858                       # CPI: Total CPI of All Threads
system.switch_cpus_1.decode.DECODE:BlockedCycles      9163313                       # Number of cycles decode is blocked
system.switch_cpus_1.decode.DECODE:BranchMispred            3                       # Number of times decode detected a branch misprediction
system.switch_cpus_1.decode.DECODE:BranchResolved        13212                       # Number of times decode resolved a branch
system.switch_cpus_1.decode.DECODE:DecodedInsts     31935437                       # Number of instructions handled by decode
system.switch_cpus_1.decode.DECODE:IdleCycles      6379047                       # Number of cycles decode is idle
system.switch_cpus_1.decode.DECODE:RunCycles      4327820                       # Number of cycles decode is running
system.switch_cpus_1.decode.DECODE:SquashCycles      1550321                       # Number of cycles decode is squashing
system.switch_cpus_1.decode.DECODE:SquashedInsts           12                       # Number of squashed instructions handled by decode
system.switch_cpus_1.decode.DECODE:UnblockCycles        67318                       # Number of cycles decode is unblocking
system.switch_cpus_1.dtb.data_accesses        6868883                       # DTB accesses
system.switch_cpus_1.dtb.data_acv                   0                       # DTB access violations
system.switch_cpus_1.dtb.data_hits            6837130                       # DTB hits
system.switch_cpus_1.dtb.data_misses            31753                       # DTB misses
system.switch_cpus_1.dtb.fetch_accesses             0                       # ITB accesses
system.switch_cpus_1.dtb.fetch_acv                  0                       # ITB acv
system.switch_cpus_1.dtb.fetch_hits                 0                       # ITB hits
system.switch_cpus_1.dtb.fetch_misses               0                       # ITB misses
system.switch_cpus_1.dtb.read_accesses        6212113                       # DTB read accesses
system.switch_cpus_1.dtb.read_acv                   0                       # DTB read access violations
system.switch_cpus_1.dtb.read_hits            6180383                       # DTB read hits
system.switch_cpus_1.dtb.read_misses            31730                       # DTB read misses
system.switch_cpus_1.dtb.write_accesses        656770                       # DTB write accesses
system.switch_cpus_1.dtb.write_acv                  0                       # DTB write access violations
system.switch_cpus_1.dtb.write_hits            656747                       # DTB write hits
system.switch_cpus_1.dtb.write_misses              23                       # DTB write misses
system.switch_cpus_1.fetch.Branches            207465                       # Number of branches that fetch encountered
system.switch_cpus_1.fetch.CacheLines         3233542                       # Number of cache lines fetched
system.switch_cpus_1.fetch.Cycles             7672087                       # Number of cycles fetch has run and was not squashing or blocked
system.switch_cpus_1.fetch.IcacheSquashes       368238                       # Number of outstanding Icache misses that were squashed
system.switch_cpus_1.fetch.Insts             32267035                       # Number of instructions fetch has processed
system.switch_cpus_1.fetch.SquashCycles        875992                       # Number of cycles fetch has spent squashing
system.switch_cpus_1.fetch.branchRate        0.008448                       # Number of branch fetches per cycle
system.switch_cpus_1.fetch.icacheStallCycles      3233542                       # Number of cycles fetch is stalled on an Icache miss
system.switch_cpus_1.fetch.predictedBranches       111746                       # Number of branches that fetch has predicted taken
system.switch_cpus_1.fetch.rate              1.313880                       # Number of inst fetches per cycle
system.switch_cpus_1.fetch.rateDist::samples     21487820                       # Number of instructions fetched each cycle (Total)
system.switch_cpus_1.fetch.rateDist::mean     1.501643                       # Number of instructions fetched each cycle (Total)
system.switch_cpus_1.fetch.rateDist::stdev     3.040618                       # Number of instructions fetched each cycle (Total)
system.switch_cpus_1.fetch.rateDist::underflows            0      0.00%      0.00% # Number of instructions fetched each cycle (Total)
system.switch_cpus_1.fetch.rateDist::0       17049288     79.34%     79.34% # Number of instructions fetched each cycle (Total)
system.switch_cpus_1.fetch.rateDist::1          61969      0.29%     79.63% # Number of instructions fetched each cycle (Total)
system.switch_cpus_1.fetch.rateDist::2         126996      0.59%     80.22% # Number of instructions fetched each cycle (Total)
system.switch_cpus_1.fetch.rateDist::3         112497      0.52%     80.75% # Number of instructions fetched each cycle (Total)
system.switch_cpus_1.fetch.rateDist::4         167724      0.78%     81.53% # Number of instructions fetched each cycle (Total)
system.switch_cpus_1.fetch.rateDist::5         106476      0.50%     82.02% # Number of instructions fetched each cycle (Total)
system.switch_cpus_1.fetch.rateDist::6         177200      0.82%     82.85% # Number of instructions fetched each cycle (Total)
system.switch_cpus_1.fetch.rateDist::7         138253      0.64%     83.49% # Number of instructions fetched each cycle (Total)
system.switch_cpus_1.fetch.rateDist::8        3547417     16.51%    100.00% # Number of instructions fetched each cycle (Total)
system.switch_cpus_1.fetch.rateDist::overflows            0      0.00%    100.00% # Number of instructions fetched each cycle (Total)
system.switch_cpus_1.fetch.rateDist::min_value            0                       # Number of instructions fetched each cycle (Total)
system.switch_cpus_1.fetch.rateDist::max_value            8                       # Number of instructions fetched each cycle (Total)
system.switch_cpus_1.fetch.rateDist::total     21487820                       # Number of instructions fetched each cycle (Total)
system.switch_cpus_1.idleCycles               3070775                       # Total number of cycles that the CPU has spent unscheduled due to idling
system.switch_cpus_1.iew.EXEC:branches         158040                       # Number of branches executed
system.switch_cpus_1.iew.EXEC:nop               42683                       # number of nop insts executed
system.switch_cpus_1.iew.EXEC:rate           0.570387                       # Inst execution rate
system.switch_cpus_1.iew.EXEC:refs            6978722                       # number of memory reference insts executed
system.switch_cpus_1.iew.EXEC:stores           656770                       # Number of stores executed
system.switch_cpus_1.iew.EXEC:swp                   0                       # number of swp insts executed
system.switch_cpus_1.iew.WB:consumers         6344841                       # num instructions consuming a value
system.switch_cpus_1.iew.WB:count            11392275                       # cumulative count of insts written-back
system.switch_cpus_1.iew.WB:fanout           0.844653                       # average fanout of values written-back
system.switch_cpus_1.iew.WB:penalized               0                       # number of instrctions required to write to 'other' IQ
system.switch_cpus_1.iew.WB:penalized_rate            0                       # fraction of instructions written-back that wrote to 'other' IQ
system.switch_cpus_1.iew.WB:producers         5359189                       # num instructions producing a value
system.switch_cpus_1.iew.WB:rate             0.463881                       # insts written-back per cycle
system.switch_cpus_1.iew.WB:sent             11425984                       # cumulative count of insts sent to commit
system.switch_cpus_1.iew.branchMispredicts        18966                       # Number of branch mispredicts detected at execute
system.switch_cpus_1.iew.iewBlockCycles       5621777                       # Number of cycles IEW is blocking
system.switch_cpus_1.iew.iewDispLoadInsts      7680935                       # Number of dispatched load instructions
system.switch_cpus_1.iew.iewDispNonSpecInsts            0                       # Number of dispatched non-speculative instructions
system.switch_cpus_1.iew.iewDispSquashedInsts      2714412                       # Number of squashed instructions skipped by dispatch
system.switch_cpus_1.iew.iewDispStoreInsts       960307                       # Number of dispatched store instructions
system.switch_cpus_1.iew.iewDispatchedInsts     19416707                       # Number of instructions dispatched to IQ
system.switch_cpus_1.iew.iewExecLoadInsts      6321952                       # Number of load instructions executed
system.switch_cpus_1.iew.iewExecSquashedInsts      1866026                       # Number of squashed instructions skipped in execute
system.switch_cpus_1.iew.iewExecutedInsts     14007906                       # Number of executed instructions
system.switch_cpus_1.iew.iewIQFullEvents        54556                       # Number of times the IQ has become full, causing a stall
system.switch_cpus_1.iew.iewIdleCycles              0                       # Number of cycles IEW is idle
system.switch_cpus_1.iew.iewLSQFullEvents         2516                       # Number of times the LSQ has become full, causing a stall
system.switch_cpus_1.iew.iewSquashCycles      1550321                       # Number of cycles IEW is squashing
system.switch_cpus_1.iew.iewUnblockCycles       132780                       # Number of cycles IEW is unblocking
system.switch_cpus_1.iew.lsq.thread.0.blockedLoads            0                       # Number of blocked loads due to partial load-store forwarding
system.switch_cpus_1.iew.lsq.thread.0.cacheBlocked      2576626                       # Number of times an access to memory failed due to the cache being blocked
system.switch_cpus_1.iew.lsq.thread.0.forwLoads         1996                       # Number of loads that had data forwarded from stores
system.switch_cpus_1.iew.lsq.thread.0.ignoredResponses            0                       # Number of memory responses ignored because the instruction is squashed
system.switch_cpus_1.iew.lsq.thread.0.invAddrLoads            0                       # Number of loads ignored due to an invalid address
system.switch_cpus_1.iew.lsq.thread.0.invAddrSwpfs            0                       # Number of software prefetches ignored due to an invalid address
system.switch_cpus_1.iew.lsq.thread.0.memOrderViolation         1487                       # Number of memory ordering violations
system.switch_cpus_1.iew.lsq.thread.0.rescheduledLoads            0                       # Number of loads that were rescheduled
system.switch_cpus_1.iew.lsq.thread.0.squashedLoads      4082963                       # Number of loads squashed
system.switch_cpus_1.iew.lsq.thread.0.squashedStores       405303                       # Number of stores squashed
system.switch_cpus_1.iew.memOrderViolationEvents         1487                       # Number of memory order violations
system.switch_cpus_1.iew.predictedNotTakenIncorrect         8449                       # Number of branches that were predicted not taken incorrectly
system.switch_cpus_1.iew.predictedTakenIncorrect        10517                       # Number of branches that were predicted taken incorrectly
system.switch_cpus_1.ipc                     0.407190                       # IPC: Instructions Per Cycle
system.switch_cpus_1.ipc_total               0.407190                       # IPC: Total IPC of All Threads
system.switch_cpus_1.iq.ISSUE:FU_type_0::No_OpClass            0      0.00%      0.00% # Type of FU issued
system.switch_cpus_1.iq.ISSUE:FU_type_0::IntAlu       866599      5.46%      5.46% # Type of FU issued
system.switch_cpus_1.iq.ISSUE:FU_type_0::IntMult         8190      0.05%      5.51% # Type of FU issued
system.switch_cpus_1.iq.ISSUE:FU_type_0::IntDiv            0      0.00%      5.51% # Type of FU issued
system.switch_cpus_1.iq.ISSUE:FU_type_0::FloatAdd      4469185     28.15%     33.67% # Type of FU issued
system.switch_cpus_1.iq.ISSUE:FU_type_0::FloatCmp            0      0.00%     33.67% # Type of FU issued
system.switch_cpus_1.iq.ISSUE:FU_type_0::FloatCvt            0      0.00%     33.67% # Type of FU issued
system.switch_cpus_1.iq.ISSUE:FU_type_0::FloatMult      3163447     19.93%     53.59% # Type of FU issued
system.switch_cpus_1.iq.ISSUE:FU_type_0::FloatDiv            0      0.00%     53.59% # Type of FU issued
system.switch_cpus_1.iq.ISSUE:FU_type_0::FloatSqrt            0      0.00%     53.59% # Type of FU issued
system.switch_cpus_1.iq.ISSUE:FU_type_0::MemRead      6665082     41.99%     95.58% # Type of FU issued
system.switch_cpus_1.iq.ISSUE:FU_type_0::MemWrite       701431      4.42%    100.00% # Type of FU issued
system.switch_cpus_1.iq.ISSUE:FU_type_0::IprAccess            0      0.00%    100.00% # Type of FU issued
system.switch_cpus_1.iq.ISSUE:FU_type_0::InstPrefetch            0      0.00%    100.00% # Type of FU issued
system.switch_cpus_1.iq.ISSUE:FU_type_0::total     15873934                       # Type of FU issued
system.switch_cpus_1.iq.ISSUE:fu_busy_cnt       159635                       # FU busy when requested
system.switch_cpus_1.iq.ISSUE:fu_busy_rate     0.010056                       # FU busy rate (busy events/executed inst)
system.switch_cpus_1.iq.ISSUE:fu_full::No_OpClass            0      0.00%      0.00% # attempts to use FU when none available
system.switch_cpus_1.iq.ISSUE:fu_full::IntAlu            8      0.01%      0.01% # attempts to use FU when none available
system.switch_cpus_1.iq.ISSUE:fu_full::IntMult            0      0.00%      0.01% # attempts to use FU when none available
system.switch_cpus_1.iq.ISSUE:fu_full::IntDiv            0      0.00%      0.01% # attempts to use FU when none available
system.switch_cpus_1.iq.ISSUE:fu_full::FloatAdd         2094      1.31%      1.32% # attempts to use FU when none available
system.switch_cpus_1.iq.ISSUE:fu_full::FloatCmp            0      0.00%      1.32% # attempts to use FU when none available
system.switch_cpus_1.iq.ISSUE:fu_full::FloatCvt            0      0.00%      1.32% # attempts to use FU when none available
system.switch_cpus_1.iq.ISSUE:fu_full::FloatMult        72444     45.38%     46.70% # attempts to use FU when none available
system.switch_cpus_1.iq.ISSUE:fu_full::FloatDiv            0      0.00%     46.70% # attempts to use FU when none available
system.switch_cpus_1.iq.ISSUE:fu_full::FloatSqrt            0      0.00%     46.70% # attempts to use FU when none available
system.switch_cpus_1.iq.ISSUE:fu_full::MemRead        82610     51.75%     98.45% # attempts to use FU when none available
system.switch_cpus_1.iq.ISSUE:fu_full::MemWrite         2479      1.55%    100.00% # attempts to use FU when none available
system.switch_cpus_1.iq.ISSUE:fu_full::IprAccess            0      0.00%    100.00% # attempts to use FU when none available
system.switch_cpus_1.iq.ISSUE:fu_full::InstPrefetch            0      0.00%    100.00% # attempts to use FU when none available
system.switch_cpus_1.iq.ISSUE:issued_per_cycle::samples     21487820                       # Number of insts issued each cycle
system.switch_cpus_1.iq.ISSUE:issued_per_cycle::mean     0.738741                       # Number of insts issued each cycle
system.switch_cpus_1.iq.ISSUE:issued_per_cycle::stdev     1.366505                       # Number of insts issued each cycle
system.switch_cpus_1.iq.ISSUE:issued_per_cycle::underflows            0      0.00%      0.00% # Number of insts issued each cycle
system.switch_cpus_1.iq.ISSUE:issued_per_cycle::0     14550239     67.71%     67.71% # Number of insts issued each cycle
system.switch_cpus_1.iq.ISSUE:issued_per_cycle::1      2653801     12.35%     80.06% # Number of insts issued each cycle
system.switch_cpus_1.iq.ISSUE:issued_per_cycle::2      1937641      9.02%     89.08% # Number of insts issued each cycle
system.switch_cpus_1.iq.ISSUE:issued_per_cycle::3      1217440      5.67%     94.75% # Number of insts issued each cycle
system.switch_cpus_1.iq.ISSUE:issued_per_cycle::4       540584      2.52%     97.26% # Number of insts issued each cycle
system.switch_cpus_1.iq.ISSUE:issued_per_cycle::5       251088      1.17%     98.43% # Number of insts issued each cycle
system.switch_cpus_1.iq.ISSUE:issued_per_cycle::6       158009      0.74%     99.17% # Number of insts issued each cycle
system.switch_cpus_1.iq.ISSUE:issued_per_cycle::7       105443      0.49%     99.66% # Number of insts issued each cycle
system.switch_cpus_1.iq.ISSUE:issued_per_cycle::8        73575      0.34%    100.00% # Number of insts issued each cycle
system.switch_cpus_1.iq.ISSUE:issued_per_cycle::overflows            0      0.00%    100.00% # Number of insts issued each cycle
system.switch_cpus_1.iq.ISSUE:issued_per_cycle::min_value            0                       # Number of insts issued each cycle
system.switch_cpus_1.iq.ISSUE:issued_per_cycle::max_value            8                       # Number of insts issued each cycle
system.switch_cpus_1.iq.ISSUE:issued_per_cycle::total     21487820                       # Number of insts issued each cycle
system.switch_cpus_1.iq.ISSUE:rate           0.646370                       # Inst issue rate
system.switch_cpus_1.iq.iqInstsAdded         19374024                       # Number of instructions added to the IQ (excludes non-spec)
system.switch_cpus_1.iq.iqInstsIssued        15873934                       # Number of instructions issued
system.switch_cpus_1.iq.iqSquashedInstsExamined      9373299                       # Number of squashed instructions iterated over during squash; mainly for profiling
system.switch_cpus_1.iq.iqSquashedInstsIssued      1733662                       # Number of squashed instructions issued
system.switch_cpus_1.iq.iqSquashedOperandsExamined      8962006                       # Number of squashed operands that are examined and possibly removed from graph
system.switch_cpus_1.itb.data_accesses              0                       # DTB accesses
system.switch_cpus_1.itb.data_acv                   0                       # DTB access violations
system.switch_cpus_1.itb.data_hits                  0                       # DTB hits
system.switch_cpus_1.itb.data_misses                0                       # DTB misses
system.switch_cpus_1.itb.fetch_accesses       3233559                       # ITB accesses
system.switch_cpus_1.itb.fetch_acv                  0                       # ITB acv
system.switch_cpus_1.itb.fetch_hits           3233542                       # ITB hits
system.switch_cpus_1.itb.fetch_misses              17                       # ITB misses
system.switch_cpus_1.itb.read_accesses              0                       # DTB read accesses
system.switch_cpus_1.itb.read_acv                   0                       # DTB read access violations
system.switch_cpus_1.itb.read_hits                  0                       # DTB read hits
system.switch_cpus_1.itb.read_misses                0                       # DTB read misses
system.switch_cpus_1.itb.write_accesses             0                       # DTB write accesses
system.switch_cpus_1.itb.write_acv                  0                       # DTB write access violations
system.switch_cpus_1.itb.write_hits                 0                       # DTB write hits
system.switch_cpus_1.itb.write_misses               0                       # DTB write misses
system.switch_cpus_1.memDep0.conflictingLoads       430029                       # Number of conflicting loads.
system.switch_cpus_1.memDep0.conflictingStores        94518                       # Number of conflicting stores.
system.switch_cpus_1.memDep0.insertedLoads      7680935                       # Number of loads inserted to the mem dependence unit.
system.switch_cpus_1.memDep0.insertedStores       960307                       # Number of stores inserted to the mem dependence unit.
system.switch_cpus_1.numCycles               24558595                       # number of cpu cycles simulated
system.switch_cpus_1.rename.RENAME:BlockCycles      7933827                       # Number of cycles rename is blocking
system.switch_cpus_1.rename.RENAME:CommittedMaps      9193394                       # Number of HB maps that are committed
system.switch_cpus_1.rename.RENAME:IQFullEvents       115043                       # Number of times rename has blocked due to IQ full
system.switch_cpus_1.rename.RENAME:IdleCycles      6990189                       # Number of cycles rename is idle
system.switch_cpus_1.rename.RENAME:LSQFullEvents      1174143                       # Number of times rename has blocked due to LSQ full
system.switch_cpus_1.rename.RENAME:ROBFullEvents        27038                       # Number of times rename has blocked due to ROB full
system.switch_cpus_1.rename.RENAME:RenameLookups     44130820                       # Number of register rename lookups that rename has made
system.switch_cpus_1.rename.RENAME:RenamedInsts     28142679                       # Number of instructions processed by rename
system.switch_cpus_1.rename.RENAME:RenamedOperands     26478304                       # Number of destination operands rename has renamed
system.switch_cpus_1.rename.RENAME:RunCycles      3770822                       # Number of cycles rename is running
system.switch_cpus_1.rename.RENAME:SquashCycles      1550321                       # Number of cycles rename is squashing
system.switch_cpus_1.rename.RENAME:UnblockCycles      1242660                       # Number of cycles rename is unblocking
system.switch_cpus_1.rename.RENAME:UndoneMaps     17284830                       # Number of HB maps that are undone due to squashing
system.switch_cpus_1.rename.RENAME:serializeStallCycles            0                       # count of cycles rename stalled for serializing inst
system.switch_cpus_1.rename.RENAME:serializingInsts            0                       # count of serializing insts renamed
system.switch_cpus_1.rename.RENAME:skidInsts      3268349                       # count of insts added to the skid buffer
system.switch_cpus_1.rename.RENAME:tempSerializingInsts            0                       # count of temporary serializing insts renamed
system.switch_cpus_1.timesIdled                 59828                       # Number of times that the entire CPU went into an idle state and unscheduled itself

---------- End Simulation Statistics   ----------
