
---------- Begin Simulation Statistics ----------
host_inst_rate                                 189617                       # Simulator instruction rate (inst/s)
host_mem_usage                                 310896                       # Number of bytes of host memory used
host_seconds                                   105.48                       # Real time elapsed on the host
host_tick_rate                             1431144236                       # Simulator tick rate (ticks/s)
sim_freq                                 1000000000000                       # Frequency of simulated ticks
sim_insts                                    20000009                       # Number of instructions simulated
sim_seconds                                  0.150952                       # Number of seconds simulated
sim_ticks                                150951607000                       # Number of ticks simulated
system.cpu.dcache.ReadReq_accesses            4709318                       # number of ReadReq accesses(hits+misses)
system.cpu.dcache.ReadReq_avg_miss_latency 111174.234884                       # average ReadReq miss latency
system.cpu.dcache.ReadReq_avg_mshr_miss_latency 110760.284151                       # average ReadReq mshr miss latency
system.cpu.dcache.ReadReq_hits                1769370                       # number of ReadReq hits
system.cpu.dcache.ReadReq_miss_latency   326846469500                       # number of ReadReq miss cycles
system.cpu.dcache.ReadReq_miss_rate          0.624283                       # miss rate for ReadReq accesses
system.cpu.dcache.ReadReq_misses              2939948                       # number of ReadReq misses
system.cpu.dcache.ReadReq_mshr_hits            359909                       # number of ReadReq MSHR hits
system.cpu.dcache.ReadReq_mshr_miss_latency 285765742000                       # number of ReadReq MSHR miss cycles
system.cpu.dcache.ReadReq_mshr_miss_rate     0.547858                       # mshr miss rate for ReadReq accesses
system.cpu.dcache.ReadReq_mshr_misses         2580038                       # number of ReadReq MSHR misses
system.cpu.dcache.WriteReq_accesses           1567315                       # number of WriteReq accesses(hits+misses)
system.cpu.dcache.WriteReq_avg_miss_latency 115392.210334                       # average WriteReq miss latency
system.cpu.dcache.WriteReq_avg_mshr_miss_latency 114724.113005                       # average WriteReq mshr miss latency
system.cpu.dcache.WriteReq_hits                983016                       # number of WriteReq hits
system.cpu.dcache.WriteReq_miss_latency   67423553106                       # number of WriteReq miss cycles
system.cpu.dcache.WriteReq_miss_rate         0.372803                       # miss rate for WriteReq accesses
system.cpu.dcache.WriteReq_misses              584299                       # number of WriteReq misses
system.cpu.dcache.WriteReq_mshr_hits            40024                       # number of WriteReq MSHR hits
system.cpu.dcache.WriteReq_mshr_miss_latency  62441466606                       # number of WriteReq MSHR miss cycles
system.cpu.dcache.WriteReq_mshr_miss_rate     0.347266                       # mshr miss rate for WriteReq accesses
system.cpu.dcache.WriteReq_mshr_misses         544275                       # number of WriteReq MSHR misses
system.cpu.dcache.avg_blocked_cycles::no_mshrs 25740.077442                       # average number of cycles each access was blocked
system.cpu.dcache.avg_blocked_cycles::no_targets 73958.532599                       # average number of cycles each access was blocked
system.cpu.dcache.avg_refs                   1.260222                       # Average number of references to valid blocks.
system.cpu.dcache.blocked::no_mshrs            179051                       # number of cycles access was blocked
system.cpu.dcache.blocked::no_targets           16519                       # number of cycles access was blocked
system.cpu.dcache.blocked_cycles::no_mshrs   4608786606                       # number of cycles access was blocked
system.cpu.dcache.blocked_cycles::no_targets   1221721000                       # number of cycles access was blocked
system.cpu.dcache.cache_copies                      0                       # number of cache copies performed
system.cpu.dcache.demand_accesses             6276633                       # number of demand (read+write) accesses
system.cpu.dcache.demand_avg_miss_latency 111873.549898                       # average overall miss latency
system.cpu.dcache.demand_avg_mshr_miss_latency 111450.808100                       # average overall mshr miss latency
system.cpu.dcache.demand_hits                 2752386                       # number of demand (read+write) hits
system.cpu.dcache.demand_miss_latency    394270022606                       # number of demand (read+write) miss cycles
system.cpu.dcache.demand_miss_rate           0.561487                       # miss rate for demand accesses
system.cpu.dcache.demand_misses               3524247                       # number of demand (read+write) misses
system.cpu.dcache.demand_mshr_hits             399933                       # number of demand (read+write) MSHR hits
system.cpu.dcache.demand_mshr_miss_latency 348207208606                       # number of demand (read+write) MSHR miss cycles
system.cpu.dcache.demand_mshr_miss_rate      0.497769                       # mshr miss rate for demand accesses
system.cpu.dcache.demand_mshr_misses          3124313                       # number of demand (read+write) MSHR misses
system.cpu.dcache.fast_writes                       0                       # number of fast writes performed
system.cpu.dcache.mshr_cap_events                   0                       # number of times MSHR cap was activated
system.cpu.dcache.no_allocate_misses                0                       # Number of misses that were no-allocate
system.cpu.dcache.occ_%::0                   0.999733                       # Average percentage of cache occupancy
system.cpu.dcache.occ_%::1                  -0.000204                       # Average percentage of cache occupancy
system.cpu.dcache.occ_blocks::0           1023.726644                       # Average occupied blocks per context
system.cpu.dcache.occ_blocks::1             -0.208935                       # Average occupied blocks per context
system.cpu.dcache.overall_accesses            6276633                       # number of overall (read+write) accesses
system.cpu.dcache.overall_avg_miss_latency 111873.549898                       # average overall miss latency
system.cpu.dcache.overall_avg_mshr_miss_latency 111450.808100                       # average overall mshr miss latency
system.cpu.dcache.overall_avg_mshr_uncacheable_latency     no_value                       # average overall mshr uncacheable latency
system.cpu.dcache.overall_hits                2752386                       # number of overall hits
system.cpu.dcache.overall_miss_latency   394270022606                       # number of overall miss cycles
system.cpu.dcache.overall_miss_rate          0.561487                       # miss rate for overall accesses
system.cpu.dcache.overall_misses              3524247                       # number of overall misses
system.cpu.dcache.overall_mshr_hits            399933                       # number of overall MSHR hits
system.cpu.dcache.overall_mshr_miss_latency 348207208606                       # number of overall MSHR miss cycles
system.cpu.dcache.overall_mshr_miss_rate     0.497769                       # mshr miss rate for overall accesses
system.cpu.dcache.overall_mshr_misses         3124313                       # number of overall MSHR misses
system.cpu.dcache.overall_mshr_uncacheable_latency            0                       # number of overall MSHR uncacheable cycles
system.cpu.dcache.overall_mshr_uncacheable_misses            0                       # number of overall MSHR uncacheable misses
system.cpu.dcache.prefetch_accuracy          no_value                       # ratio of good prefetches to total prefetches
system.cpu.dcache.prefetch_hits                     0                       # number of prefetched blocks that were accessed
system.cpu.dcache.replacements                2599038                       # number of replacements
system.cpu.dcache.sampled_refs                2600062                       # Sample count of references to valid blocks.
system.cpu.dcache.soft_prefetch_mshr_full            0                       # number of mshr full events for SW prefetching instrutions
system.cpu.dcache.tagsinuse               1023.622177                       # Cycle average of tags in use
system.cpu.dcache.total_refs                  3276655                       # Total number of references to valid blocks.
system.cpu.dcache.warmup_cycle           501004747500                       # Cycle when the warmup percentage was hit.
system.cpu.dcache.writebacks                   543830                       # number of writebacks
system.cpu.dtb.data_accesses                        1                       # DTB accesses
system.cpu.dtb.data_acv                             0                       # DTB access violations
system.cpu.dtb.data_hits                            1                       # DTB hits
system.cpu.dtb.data_misses                          0                       # DTB misses
system.cpu.dtb.fetch_accesses                       0                       # ITB accesses
system.cpu.dtb.fetch_acv                            0                       # ITB acv
system.cpu.dtb.fetch_hits                           0                       # ITB hits
system.cpu.dtb.fetch_misses                         0                       # ITB misses
system.cpu.dtb.read_accesses                        1                       # DTB read accesses
system.cpu.dtb.read_acv                             0                       # DTB read access violations
system.cpu.dtb.read_hits                            1                       # DTB read hits
system.cpu.dtb.read_misses                          0                       # DTB read misses
system.cpu.dtb.write_accesses                       0                       # DTB write accesses
system.cpu.dtb.write_acv                            0                       # DTB write access violations
system.cpu.dtb.write_hits                           0                       # DTB write hits
system.cpu.dtb.write_misses                         0                       # DTB write misses
system.cpu.icache.ReadReq_accesses           13605384                       # number of ReadReq accesses(hits+misses)
system.cpu.icache.ReadReq_avg_miss_latency 63277.343750                       # average ReadReq miss latency
system.cpu.icache.ReadReq_avg_mshr_miss_latency 60626.984127                       # average ReadReq mshr miss latency
system.cpu.icache.ReadReq_hits               13605256                       # number of ReadReq hits
system.cpu.icache.ReadReq_miss_latency        8099500                       # number of ReadReq miss cycles
system.cpu.icache.ReadReq_miss_rate          0.000009                       # miss rate for ReadReq accesses
system.cpu.icache.ReadReq_misses                  128                       # number of ReadReq misses
system.cpu.icache.ReadReq_mshr_hits                 1                       # number of ReadReq MSHR hits
system.cpu.icache.ReadReq_mshr_miss_latency      7639000                       # number of ReadReq MSHR miss cycles
system.cpu.icache.ReadReq_mshr_miss_rate     0.000009                       # mshr miss rate for ReadReq accesses
system.cpu.icache.ReadReq_mshr_misses             126                       # number of ReadReq MSHR misses
system.cpu.icache.avg_blocked_cycles::no_mshrs     no_value                       # average number of cycles each access was blocked
system.cpu.icache.avg_blocked_cycles::no_targets     no_value                       # average number of cycles each access was blocked
system.cpu.icache.avg_refs                     107128                       # Average number of references to valid blocks.
system.cpu.icache.blocked::no_mshrs                 0                       # number of cycles access was blocked
system.cpu.icache.blocked::no_targets               0                       # number of cycles access was blocked
system.cpu.icache.blocked_cycles::no_mshrs            0                       # number of cycles access was blocked
system.cpu.icache.blocked_cycles::no_targets            0                       # number of cycles access was blocked
system.cpu.icache.cache_copies                      0                       # number of cache copies performed
system.cpu.icache.demand_accesses            13605384                       # number of demand (read+write) accesses
system.cpu.icache.demand_avg_miss_latency 63277.343750                       # average overall miss latency
system.cpu.icache.demand_avg_mshr_miss_latency 60626.984127                       # average overall mshr miss latency
system.cpu.icache.demand_hits                13605256                       # number of demand (read+write) hits
system.cpu.icache.demand_miss_latency         8099500                       # number of demand (read+write) miss cycles
system.cpu.icache.demand_miss_rate           0.000009                       # miss rate for demand accesses
system.cpu.icache.demand_misses                   128                       # number of demand (read+write) misses
system.cpu.icache.demand_mshr_hits                  1                       # number of demand (read+write) MSHR hits
system.cpu.icache.demand_mshr_miss_latency      7639000                       # number of demand (read+write) MSHR miss cycles
system.cpu.icache.demand_mshr_miss_rate      0.000009                       # mshr miss rate for demand accesses
system.cpu.icache.demand_mshr_misses              126                       # number of demand (read+write) MSHR misses
system.cpu.icache.fast_writes                       0                       # number of fast writes performed
system.cpu.icache.mshr_cap_events                   0                       # number of times MSHR cap was activated
system.cpu.icache.no_allocate_misses                0                       # Number of misses that were no-allocate
system.cpu.icache.occ_%::0                   0.170585                       # Average percentage of cache occupancy
system.cpu.icache.occ_blocks::0             87.339294                       # Average occupied blocks per context
system.cpu.icache.overall_accesses           13605384                       # number of overall (read+write) accesses
system.cpu.icache.overall_avg_miss_latency 63277.343750                       # average overall miss latency
system.cpu.icache.overall_avg_mshr_miss_latency 60626.984127                       # average overall mshr miss latency
system.cpu.icache.overall_avg_mshr_uncacheable_latency     no_value                       # average overall mshr uncacheable latency
system.cpu.icache.overall_hits               13605256                       # number of overall hits
system.cpu.icache.overall_miss_latency        8099500                       # number of overall miss cycles
system.cpu.icache.overall_miss_rate          0.000009                       # miss rate for overall accesses
system.cpu.icache.overall_misses                  128                       # number of overall misses
system.cpu.icache.overall_mshr_hits                 1                       # number of overall MSHR hits
system.cpu.icache.overall_mshr_miss_latency      7639000                       # number of overall MSHR miss cycles
system.cpu.icache.overall_mshr_miss_rate     0.000009                       # mshr miss rate for overall accesses
system.cpu.icache.overall_mshr_misses             126                       # number of overall MSHR misses
system.cpu.icache.overall_mshr_uncacheable_latency            0                       # number of overall MSHR uncacheable cycles
system.cpu.icache.overall_mshr_uncacheable_misses            0                       # number of overall MSHR uncacheable misses
system.cpu.icache.prefetch_accuracy          no_value                       # ratio of good prefetches to total prefetches
system.cpu.icache.prefetch_hits                     0                       # number of prefetched blocks that were accessed
system.cpu.icache.replacements                      0                       # number of replacements
system.cpu.icache.sampled_refs                    127                       # Sample count of references to valid blocks.
system.cpu.icache.soft_prefetch_mshr_full            0                       # number of mshr full events for SW prefetching instrutions
system.cpu.icache.tagsinuse                 87.339294                       # Cycle average of tags in use
system.cpu.icache.total_refs                 13605256                       # Total number of references to valid blocks.
system.cpu.icache.warmup_cycle                      0                       # Cycle when the warmup percentage was hit.
system.cpu.icache.writebacks                        0                       # number of writebacks
system.cpu.idle_fraction                            0                       # Percentage of idle cycles
system.cpu.itb.data_accesses                        0                       # DTB accesses
system.cpu.itb.data_acv                             0                       # DTB access violations
system.cpu.itb.data_hits                            0                       # DTB hits
system.cpu.itb.data_misses                          0                       # DTB misses
system.cpu.itb.fetch_accesses                       2                       # ITB accesses
system.cpu.itb.fetch_acv                            0                       # ITB acv
system.cpu.itb.fetch_hits                           2                       # ITB hits
system.cpu.itb.fetch_misses                         0                       # ITB misses
system.cpu.itb.read_accesses                        0                       # DTB read accesses
system.cpu.itb.read_acv                             0                       # DTB read access violations
system.cpu.itb.read_hits                            0                       # DTB read hits
system.cpu.itb.read_misses                          0                       # DTB read misses
system.cpu.itb.write_accesses                       0                       # DTB write accesses
system.cpu.itb.write_acv                            0                       # DTB write access violations
system.cpu.itb.write_hits                           0                       # DTB write hits
system.cpu.itb.write_misses                         0                       # DTB write misses
system.cpu.not_idle_fraction                        1                       # Percentage of non-idle cycles
system.cpu.numCycles                                2                       # number of cpu cycles simulated
system.cpu.num_insts                                2                       # Number of instructions executed
system.cpu.num_refs                                 1                       # Number of memory references
system.cpu.workload.PROG:num_syscalls               0                       # Number of system calls
system.l2.HardPFReq_avg_mshr_miss_latency 83296.144822                       # average HardPFReq mshr miss latency
system.l2.HardPFReq_mshr_miss_latency     30040171557                       # number of HardPFReq MSHR miss cycles
system.l2.HardPFReq_mshr_miss_rate                inf                       # mshr miss rate for HardPFReq accesses
system.l2.HardPFReq_mshr_misses                360643                       # number of HardPFReq MSHR misses
system.l2.ReadExReq_accesses                    20024                       # number of ReadExReq accesses(hits+misses)
system.l2.ReadExReq_avg_miss_latency     69209.498602                       # average ReadExReq miss latency
system.l2.ReadExReq_avg_mshr_miss_latency 54194.341790                       # average ReadExReq mshr miss latency
system.l2.ReadExReq_miss_latency           1385851000                       # number of ReadExReq miss cycles
system.l2.ReadExReq_miss_rate                       1                       # miss rate for ReadExReq accesses
system.l2.ReadExReq_misses                      20024                       # number of ReadExReq misses
system.l2.ReadExReq_mshr_miss_latency      1085187500                       # number of ReadExReq MSHR miss cycles
system.l2.ReadExReq_mshr_miss_rate                  1                       # mshr miss rate for ReadExReq accesses
system.l2.ReadExReq_mshr_misses                 20024                       # number of ReadExReq MSHR misses
system.l2.ReadReq_accesses                    2580165                       # number of ReadReq accesses(hits+misses)
system.l2.ReadReq_avg_miss_latency       114018.543515                       # average ReadReq miss latency
system.l2.ReadReq_avg_mshr_miss_latency  98599.026326                       # average ReadReq mshr miss latency
system.l2.ReadReq_hits                         115422                       # number of ReadReq hits
system.l2.ReadReq_miss_latency           281026407000                       # number of ReadReq miss cycles
system.l2.ReadReq_miss_rate                  0.955266                       # miss rate for ReadReq accesses
system.l2.ReadReq_misses                      2464743                       # number of ReadReq misses
system.l2.ReadReq_mshr_hits                      9197                       # number of ReadReq MSHR hits
system.l2.ReadReq_mshr_miss_latency      242114247500                       # number of ReadReq MSHR miss cycles
system.l2.ReadReq_mshr_miss_rate             0.951700                       # mshr miss rate for ReadReq accesses
system.l2.ReadReq_mshr_misses                 2455544                       # number of ReadReq MSHR misses
system.l2.UpgradeReq_accesses                  524252                       # number of UpgradeReq accesses(hits+misses)
system.l2.UpgradeReq_avg_miss_latency    114541.584269                       # average UpgradeReq miss latency
system.l2.UpgradeReq_avg_mshr_miss_latency 99123.895842                       # average UpgradeReq mshr miss latency
system.l2.UpgradeReq_miss_latency         60048654636                       # number of UpgradeReq miss cycles
system.l2.UpgradeReq_miss_rate                      1                       # miss rate for UpgradeReq accesses
system.l2.UpgradeReq_misses                    524252                       # number of UpgradeReq misses
system.l2.UpgradeReq_mshr_miss_latency    51965900643                       # number of UpgradeReq MSHR miss cycles
system.l2.UpgradeReq_mshr_miss_rate                 1                       # mshr miss rate for UpgradeReq accesses
system.l2.UpgradeReq_mshr_misses               524252                       # number of UpgradeReq MSHR misses
system.l2.Writeback_accesses                   543830                       # number of Writeback accesses(hits+misses)
system.l2.Writeback_hits                       543830                       # number of Writeback hits
system.l2.avg_blocked_cycles::no_mshrs   16633.928571                       # average number of cycles each access was blocked
system.l2.avg_blocked_cycles::no_targets     no_value                       # average number of cycles each access was blocked
system.l2.avg_refs                           0.385437                       # Average number of references to valid blocks.
system.l2.blocked::no_mshrs                        56                       # number of cycles access was blocked
system.l2.blocked::no_targets                       0                       # number of cycles access was blocked
system.l2.blocked_cycles::no_mshrs             931500                       # number of cycles access was blocked
system.l2.blocked_cycles::no_targets                0                       # number of cycles access was blocked
system.l2.cache_copies                              0                       # number of cache copies performed
system.l2.demand_accesses                     2600189                       # number of demand (read+write) accesses
system.l2.demand_avg_miss_latency        113657.440718                       # average overall miss latency
system.l2.demand_avg_mshr_miss_latency   98239.852430                       # average overall mshr miss latency
system.l2.demand_hits                          115422                       # number of demand (read+write) hits
system.l2.demand_miss_latency            282412258000                       # number of demand (read+write) miss cycles
system.l2.demand_miss_rate                   0.955610                       # miss rate for demand accesses
system.l2.demand_misses                       2484767                       # number of demand (read+write) misses
system.l2.demand_mshr_hits                       9197                       # number of demand (read+write) MSHR hits
system.l2.demand_mshr_miss_latency       243199435000                       # number of demand (read+write) MSHR miss cycles
system.l2.demand_mshr_miss_rate              0.952072                       # mshr miss rate for demand accesses
system.l2.demand_mshr_misses                  2475568                       # number of demand (read+write) MSHR misses
system.l2.fast_writes                               0                       # number of fast writes performed
system.l2.mshr_cap_events                           0                       # number of times MSHR cap was activated
system.l2.no_allocate_misses                        0                       # Number of misses that were no-allocate
system.l2.occ_%::0                           0.760441                       # Average percentage of cache occupancy
system.l2.occ_%::1                           0.052261                       # Average percentage of cache occupancy
system.l2.occ_blocks::0                  12459.066836                       # Average occupied blocks per context
system.l2.occ_blocks::1                    856.246905                       # Average occupied blocks per context
system.l2.overall_accesses                    2600189                       # number of overall (read+write) accesses
system.l2.overall_avg_miss_latency       113657.440718                       # average overall miss latency
system.l2.overall_avg_mshr_miss_latency  96339.661103                       # average overall mshr miss latency
system.l2.overall_avg_mshr_uncacheable_latency     no_value                       # average overall mshr uncacheable latency
system.l2.overall_hits                         115422                       # number of overall hits
system.l2.overall_miss_latency           282412258000                       # number of overall miss cycles
system.l2.overall_miss_rate                  0.955610                       # miss rate for overall accesses
system.l2.overall_misses                      2484767                       # number of overall misses
system.l2.overall_mshr_hits                      9197                       # number of overall MSHR hits
system.l2.overall_mshr_miss_latency      273239606557                       # number of overall MSHR miss cycles
system.l2.overall_mshr_miss_rate             1.090771                       # mshr miss rate for overall accesses
system.l2.overall_mshr_misses                 2836211                       # number of overall MSHR misses
system.l2.overall_mshr_uncacheable_latency            0                       # number of overall MSHR uncacheable cycles
system.l2.overall_mshr_uncacheable_misses            0                       # number of overall MSHR uncacheable misses
system.l2.prefetch_accuracy                  0.961383                       # ratio of good prefetches to total prefetches
system.l2.prefetch_hits                        346716                       # number of prefetched blocks that were accessed
system.l2.prefetcher.num_hwpf_already_in_prefetcher       892429                       # number of hwpf that were already in the prefetch queue
system.l2.prefetcher.num_hwpf_evicted           13279                       # number of hwpf removed due to no buffer left
system.l2.prefetcher.num_hwpf_identified      1475816                       # number of hwpf identified
system.l2.prefetcher.num_hwpf_issued           360643                       # number of hwpf issued
system.l2.prefetcher.num_hwpf_removed_MSHR_hit       209465                       # number of hwpf removed because MSHR allocated
system.l2.prefetcher.num_hwpf_span_page             0                       # number of hwpf spanning a virtual page
system.l2.prefetcher.num_hwpf_squashed_from_miss            0                       # number of hwpf that got squashed due to a miss aborting calculation time
system.l2.replacements                        2483687                       # number of replacements
system.l2.sampled_refs                        2494895                       # Sample count of references to valid blocks.
system.l2.soft_prefetch_mshr_full                   0                       # number of mshr full events for SW prefetching instrutions
system.l2.tagsinuse                      13315.313741                       # Cycle average of tags in use
system.l2.total_refs                           961625                       # Total number of references to valid blocks.
system.l2.warmup_cycle                   502123714000                       # Cycle when the warmup percentage was hit.
system.l2.writebacks                           508564                       # number of writebacks
system.switch_cpus.dtb.data_accesses          2980716                       # DTB accesses
system.switch_cpus.dtb.data_acv                     0                       # DTB access violations
system.switch_cpus.dtb.data_hits              2962770                       # DTB hits
system.switch_cpus.dtb.data_misses              17946                       # DTB misses
system.switch_cpus.dtb.fetch_accesses               0                       # ITB accesses
system.switch_cpus.dtb.fetch_acv                    0                       # ITB acv
system.switch_cpus.dtb.fetch_hits                   0                       # ITB hits
system.switch_cpus.dtb.fetch_misses                 0                       # ITB misses
system.switch_cpus.dtb.read_accesses          2206932                       # DTB read accesses
system.switch_cpus.dtb.read_acv                     0                       # DTB read access violations
system.switch_cpus.dtb.read_hits              2189262                       # DTB read hits
system.switch_cpus.dtb.read_misses              17670                       # DTB read misses
system.switch_cpus.dtb.write_accesses          773784                       # DTB write accesses
system.switch_cpus.dtb.write_acv                    0                       # DTB write access violations
system.switch_cpus.dtb.write_hits              773508                       # DTB write hits
system.switch_cpus.dtb.write_misses               276                       # DTB write misses
system.switch_cpus.idle_fraction                    1                       # Percentage of idle cycles
system.switch_cpus.itb.data_accesses                0                       # DTB accesses
system.switch_cpus.itb.data_acv                     0                       # DTB access violations
system.switch_cpus.itb.data_hits                    0                       # DTB hits
system.switch_cpus.itb.data_misses                  0                       # DTB misses
system.switch_cpus.itb.fetch_accesses        10017952                       # ITB accesses
system.switch_cpus.itb.fetch_acv                    0                       # ITB acv
system.switch_cpus.itb.fetch_hits            10017948                       # ITB hits
system.switch_cpus.itb.fetch_misses                 4                       # ITB misses
system.switch_cpus.itb.read_accesses                0                       # DTB read accesses
system.switch_cpus.itb.read_acv                     0                       # DTB read access violations
system.switch_cpus.itb.read_hits                    0                       # DTB read hits
system.switch_cpus.itb.read_misses                  0                       # DTB read misses
system.switch_cpus.itb.write_accesses               0                       # DTB write accesses
system.switch_cpus.itb.write_acv                    0                       # DTB write access violations
system.switch_cpus.itb.write_hits                   0                       # DTB write hits
system.switch_cpus.itb.write_misses                 0                       # DTB write misses
system.switch_cpus.not_idle_fraction                0                       # Percentage of non-idle cycles
system.switch_cpus.numCycles                215232547                       # number of cpu cycles simulated
system.switch_cpus.num_insts                 10000001                       # Number of instructions executed
system.switch_cpus.num_refs                   3733211                       # Number of memory references
system.switch_cpus_1.BPredUnit.BTBCorrect            0                       # Number of correct BTB predictions (this stat may not work properly.
system.switch_cpus_1.BPredUnit.BTBHits        1460276                       # Number of BTB hits
system.switch_cpus_1.BPredUnit.BTBLookups      1593820                       # Number of BTB lookups
system.switch_cpus_1.BPredUnit.RASInCorrect            1                       # Number of incorrect RAS predictions.
system.switch_cpus_1.BPredUnit.condIncorrect       151936                       # Number of conditional branches incorrect
system.switch_cpus_1.BPredUnit.condPredicted      1638725                       # Number of conditional branches predicted
system.switch_cpus_1.BPredUnit.lookups        1711449                       # Number of BP lookups
system.switch_cpus_1.BPredUnit.usedRAS          26471                       # Number of times the RAS was used to get a target.
system.switch_cpus_1.commit.COM:branches      1112239                       # Number of branches committed
system.switch_cpus_1.commit.COM:bw_lim_events       592075                       # number cycles where commit BW limit reached
system.switch_cpus_1.commit.COM:bw_limited            0                       # number of insts not committed due to BW limits
system.switch_cpus_1.commit.COM:committed_per_cycle::samples     65284785                       # Number of insts commited each cycle
system.switch_cpus_1.commit.COM:committed_per_cycle::mean     0.156016                       # Number of insts commited each cycle
system.switch_cpus_1.commit.COM:committed_per_cycle::stdev     0.903461                       # Number of insts commited each cycle
system.switch_cpus_1.commit.COM:committed_per_cycle::underflows            0      0.00%      0.00% # Number of insts commited each cycle
system.switch_cpus_1.commit.COM:committed_per_cycle::0     62058182     95.06%     95.06% # Number of insts commited each cycle
system.switch_cpus_1.commit.COM:committed_per_cycle::1      1352771      2.07%     97.13% # Number of insts commited each cycle
system.switch_cpus_1.commit.COM:committed_per_cycle::2       578784      0.89%     98.02% # Number of insts commited each cycle
system.switch_cpus_1.commit.COM:committed_per_cycle::3       240887      0.37%     98.39% # Number of insts commited each cycle
system.switch_cpus_1.commit.COM:committed_per_cycle::4       277407      0.42%     98.81% # Number of insts commited each cycle
system.switch_cpus_1.commit.COM:committed_per_cycle::5        42528      0.07%     98.88% # Number of insts commited each cycle
system.switch_cpus_1.commit.COM:committed_per_cycle::6       101426      0.16%     99.03% # Number of insts commited each cycle
system.switch_cpus_1.commit.COM:committed_per_cycle::7        40725      0.06%     99.09% # Number of insts commited each cycle
system.switch_cpus_1.commit.COM:committed_per_cycle::8       592075      0.91%    100.00% # Number of insts commited each cycle
system.switch_cpus_1.commit.COM:committed_per_cycle::overflows            0      0.00%    100.00% # Number of insts commited each cycle
system.switch_cpus_1.commit.COM:committed_per_cycle::min_value            0                       # Number of insts commited each cycle
system.switch_cpus_1.commit.COM:committed_per_cycle::max_value            8                       # Number of insts commited each cycle
system.switch_cpus_1.commit.COM:committed_per_cycle::total     65284785                       # Number of insts commited each cycle
system.switch_cpus_1.commit.COM:count        10185499                       # Number of instructions committed
system.switch_cpus_1.commit.COM:loads         3006543                       # Number of loads committed
system.switch_cpus_1.commit.COM:membars             0                       # Number of memory barriers committed
system.switch_cpus_1.commit.COM:refs          3800350                       # Number of memory references committed
system.switch_cpus_1.commit.COM:swp_count            0                       # Number of s/w prefetches committed
system.switch_cpus_1.commit.branchMispredicts       151927                       # The number of times a branch was mispredicted
system.switch_cpus_1.commit.commitCommittedInsts     10185499                       # The number of committed instructions
system.switch_cpus_1.commit.commitSquashedInsts      7242865                       # The number of squashed insts skipped by commit
system.switch_cpus_1.committedInsts          10000006                       # Number of Instructions Simulated
system.switch_cpus_1.committedInsts_total     10000006                       # Number of Instructions Simulated
system.switch_cpus_1.cpi                     8.667061                       # CPI: Cycles Per Instruction
system.switch_cpus_1.cpi_total               8.667061                       # CPI: Total CPI of All Threads
system.switch_cpus_1.decode.DECODE:BlockedCycles     53491543                       # Number of cycles decode is blocked
system.switch_cpus_1.decode.DECODE:BranchMispred           10                       # Number of times decode detected a branch misprediction
system.switch_cpus_1.decode.DECODE:BranchResolved        45399                       # Number of times decode resolved a branch
system.switch_cpus_1.decode.DECODE:DecodedInsts     25796520                       # Number of instructions handled by decode
system.switch_cpus_1.decode.DECODE:IdleCycles      7468330                       # Number of cycles decode is idle
system.switch_cpus_1.decode.DECODE:RunCycles      4220276                       # Number of cycles decode is running
system.switch_cpus_1.decode.DECODE:SquashCycles      1234109                       # Number of cycles decode is squashing
system.switch_cpus_1.decode.DECODE:SquashedInsts           42                       # Number of squashed instructions handled by decode
system.switch_cpus_1.decode.DECODE:UnblockCycles       104635                       # Number of cycles decode is unblocking
system.switch_cpus_1.dtb.data_accesses        4750033                       # DTB accesses
system.switch_cpus_1.dtb.data_acv                   0                       # DTB access violations
system.switch_cpus_1.dtb.data_hits            4635636                       # DTB hits
system.switch_cpus_1.dtb.data_misses           114397                       # DTB misses
system.switch_cpus_1.dtb.fetch_accesses             0                       # ITB accesses
system.switch_cpus_1.dtb.fetch_acv                  0                       # ITB acv
system.switch_cpus_1.dtb.fetch_hits                 0                       # ITB hits
system.switch_cpus_1.dtb.fetch_misses               0                       # ITB misses
system.switch_cpus_1.dtb.read_accesses        3793899                       # DTB read accesses
system.switch_cpus_1.dtb.read_acv                   0                       # DTB read access violations
system.switch_cpus_1.dtb.read_hits            3681657                       # DTB read hits
system.switch_cpus_1.dtb.read_misses           112242                       # DTB read misses
system.switch_cpus_1.dtb.write_accesses        956134                       # DTB write accesses
system.switch_cpus_1.dtb.write_acv                  0                       # DTB write access violations
system.switch_cpus_1.dtb.write_hits            953979                       # DTB write hits
system.switch_cpus_1.dtb.write_misses            2155                       # DTB write misses
system.switch_cpus_1.fetch.Branches           1711449                       # Number of branches that fetch encountered
system.switch_cpus_1.fetch.CacheLines         3587434                       # Number of cache lines fetched
system.switch_cpus_1.fetch.Cycles             8020971                       # Number of cycles fetch has run and was not squashing or blocked
system.switch_cpus_1.fetch.IcacheSquashes       114197                       # Number of outstanding Icache misses that were squashed
system.switch_cpus_1.fetch.Insts             26475586                       # Number of instructions fetch has processed
system.switch_cpus_1.fetch.SquashCycles        719457                       # Number of cycles fetch has spent squashing
system.switch_cpus_1.fetch.branchRate        0.019747                       # Number of branch fetches per cycle
system.switch_cpus_1.fetch.icacheStallCycles      3587434                       # Number of cycles fetch is stalled on an Icache miss
system.switch_cpus_1.fetch.predictedBranches      1486747                       # Number of branches that fetch has predicted taken
system.switch_cpus_1.fetch.rate              0.305473                       # Number of inst fetches per cycle
system.switch_cpus_1.fetch.rateDist::samples     66518894                       # Number of instructions fetched each cycle (Total)
system.switch_cpus_1.fetch.rateDist::mean     0.398016                       # Number of instructions fetched each cycle (Total)
system.switch_cpus_1.fetch.rateDist::stdev     1.609052                       # Number of instructions fetched each cycle (Total)
system.switch_cpus_1.fetch.rateDist::underflows            0      0.00%      0.00% # Number of instructions fetched each cycle (Total)
system.switch_cpus_1.fetch.rateDist::0       62085369     93.33%     93.33% # Number of instructions fetched each cycle (Total)
system.switch_cpus_1.fetch.rateDist::1          72675      0.11%     93.44% # Number of instructions fetched each cycle (Total)
system.switch_cpus_1.fetch.rateDist::2         643140      0.97%     94.41% # Number of instructions fetched each cycle (Total)
system.switch_cpus_1.fetch.rateDist::3          68293      0.10%     94.51% # Number of instructions fetched each cycle (Total)
system.switch_cpus_1.fetch.rateDist::4         729011      1.10%     95.61% # Number of instructions fetched each cycle (Total)
system.switch_cpus_1.fetch.rateDist::5         128670      0.19%     95.80% # Number of instructions fetched each cycle (Total)
system.switch_cpus_1.fetch.rateDist::6         334645      0.50%     96.31% # Number of instructions fetched each cycle (Total)
system.switch_cpus_1.fetch.rateDist::7         312240      0.47%     96.78% # Number of instructions fetched each cycle (Total)
system.switch_cpus_1.fetch.rateDist::8        2144851      3.22%    100.00% # Number of instructions fetched each cycle (Total)
system.switch_cpus_1.fetch.rateDist::overflows            0      0.00%    100.00% # Number of instructions fetched each cycle (Total)
system.switch_cpus_1.fetch.rateDist::min_value            0                       # Number of instructions fetched each cycle (Total)
system.switch_cpus_1.fetch.rateDist::max_value            8                       # Number of instructions fetched each cycle (Total)
system.switch_cpus_1.fetch.rateDist::total     66518894                       # Number of instructions fetched each cycle (Total)
system.switch_cpus_1.idleCycles              20151772                       # Total number of cycles that the CPU has spent unscheduled due to idling
system.switch_cpus_1.iew.EXEC:branches        1212515                       # Number of branches executed
system.switch_cpus_1.iew.EXEC:nop              260747                       # number of nop insts executed
system.switch_cpus_1.iew.EXEC:rate           0.153748                       # Inst execution rate
system.switch_cpus_1.iew.EXEC:refs            6142959                       # number of memory reference insts executed
system.switch_cpus_1.iew.EXEC:stores           956134                       # Number of stores executed
system.switch_cpus_1.iew.EXEC:swp                   0                       # number of swp insts executed
system.switch_cpus_1.iew.WB:consumers         8277380                       # num instructions consuming a value
system.switch_cpus_1.iew.WB:count            11921109                       # cumulative count of insts written-back
system.switch_cpus_1.iew.WB:fanout           0.803357                       # average fanout of values written-back
system.switch_cpus_1.iew.WB:penalized               0                       # number of instrctions required to write to 'other' IQ
system.switch_cpus_1.iew.WB:penalized_rate            0                       # fraction of instructions written-back that wrote to 'other' IQ
system.switch_cpus_1.iew.WB:producers         6649689                       # num instructions producing a value
system.switch_cpus_1.iew.WB:rate             0.137545                       # insts written-back per cycle
system.switch_cpus_1.iew.WB:sent             12036702                       # cumulative count of insts sent to commit
system.switch_cpus_1.iew.branchMispredicts       152479                       # Number of branch mispredicts detected at execute
system.switch_cpus_1.iew.iewBlockCycles      43445593                       # Number of cycles IEW is blocking
system.switch_cpus_1.iew.iewDispLoadInsts      6005888                       # Number of dispatched load instructions
system.switch_cpus_1.iew.iewDispNonSpecInsts            0                       # Number of dispatched non-speculative instructions
system.switch_cpus_1.iew.iewDispSquashedInsts      2317373                       # Number of squashed instructions skipped by dispatch
system.switch_cpus_1.iew.iewDispStoreInsts      1672933                       # Number of dispatched store instructions
system.switch_cpus_1.iew.iewDispatchedInsts     17455347                       # Number of instructions dispatched to IQ
system.switch_cpus_1.iew.iewExecLoadInsts      5186825                       # Number of load instructions executed
system.switch_cpus_1.iew.iewExecSquashedInsts       964454                       # Number of squashed instructions skipped in execute
system.switch_cpus_1.iew.iewExecutedInsts     13325449                       # Number of executed instructions
system.switch_cpus_1.iew.iewIQFullEvents        54324                       # Number of times the IQ has become full, causing a stall
system.switch_cpus_1.iew.iewIdleCycles              0                       # Number of cycles IEW is idle
system.switch_cpus_1.iew.iewLSQFullEvents       199670                       # Number of times the LSQ has become full, causing a stall
system.switch_cpus_1.iew.iewSquashCycles      1234109                       # Number of cycles IEW is squashing
system.switch_cpus_1.iew.iewUnblockCycles       691830                       # Number of cycles IEW is unblocking
system.switch_cpus_1.iew.lsq.thread.0.blockedLoads            0                       # Number of blocked loads due to partial load-store forwarding
system.switch_cpus_1.iew.lsq.thread.0.cacheBlocked      1233266                       # Number of times an access to memory failed due to the cache being blocked
system.switch_cpus_1.iew.lsq.thread.0.forwLoads        52435                       # Number of loads that had data forwarded from stores
system.switch_cpus_1.iew.lsq.thread.0.ignoredResponses           21                       # Number of memory responses ignored because the instruction is squashed
system.switch_cpus_1.iew.lsq.thread.0.invAddrLoads            0                       # Number of loads ignored due to an invalid address
system.switch_cpus_1.iew.lsq.thread.0.invAddrSwpfs            0                       # Number of software prefetches ignored due to an invalid address
system.switch_cpus_1.iew.lsq.thread.0.memOrderViolation         4227                       # Number of memory ordering violations
system.switch_cpus_1.iew.lsq.thread.0.rescheduledLoads            0                       # Number of loads that were rescheduled
system.switch_cpus_1.iew.lsq.thread.0.squashedLoads      2999343                       # Number of loads squashed
system.switch_cpus_1.iew.lsq.thread.0.squashedStores       879125                       # Number of stores squashed
system.switch_cpus_1.iew.memOrderViolationEvents         4227                       # Number of memory order violations
system.switch_cpus_1.iew.predictedNotTakenIncorrect        20822                       # Number of branches that were predicted not taken incorrectly
system.switch_cpus_1.iew.predictedTakenIncorrect       131657                       # Number of branches that were predicted taken incorrectly
system.switch_cpus_1.ipc                     0.115379                       # IPC: Instructions Per Cycle
system.switch_cpus_1.ipc_total               0.115379                       # IPC: Total IPC of All Threads
system.switch_cpus_1.iq.ISSUE:FU_type_0::No_OpClass            0      0.00%      0.00% # Type of FU issued
system.switch_cpus_1.iq.ISSUE:FU_type_0::IntAlu      4937449     34.55%     34.55% # Type of FU issued
system.switch_cpus_1.iq.ISSUE:FU_type_0::IntMult            0      0.00%     34.55% # Type of FU issued
system.switch_cpus_1.iq.ISSUE:FU_type_0::IntDiv            0      0.00%     34.55% # Type of FU issued
system.switch_cpus_1.iq.ISSUE:FU_type_0::FloatAdd      1422761      9.96%     44.51% # Type of FU issued
system.switch_cpus_1.iq.ISSUE:FU_type_0::FloatCmp       152577      1.07%     45.58% # Type of FU issued
system.switch_cpus_1.iq.ISSUE:FU_type_0::FloatCvt        37529      0.26%     45.84% # Type of FU issued
system.switch_cpus_1.iq.ISSUE:FU_type_0::FloatMult      1286321      9.00%     54.84% # Type of FU issued
system.switch_cpus_1.iq.ISSUE:FU_type_0::FloatDiv            9      0.00%     54.84% # Type of FU issued
system.switch_cpus_1.iq.ISSUE:FU_type_0::FloatSqrt           14      0.00%     54.84% # Type of FU issued
system.switch_cpus_1.iq.ISSUE:FU_type_0::MemRead      5392106     37.73%     92.57% # Type of FU issued
system.switch_cpus_1.iq.ISSUE:FU_type_0::MemWrite      1061142      7.43%    100.00% # Type of FU issued
system.switch_cpus_1.iq.ISSUE:FU_type_0::IprAccess            0      0.00%    100.00% # Type of FU issued
system.switch_cpus_1.iq.ISSUE:FU_type_0::InstPrefetch            0      0.00%    100.00% # Type of FU issued
system.switch_cpus_1.iq.ISSUE:FU_type_0::total     14289908                       # Type of FU issued
system.switch_cpus_1.iq.ISSUE:fu_busy_cnt       314133                       # FU busy when requested
system.switch_cpus_1.iq.ISSUE:fu_busy_rate     0.021983                       # FU busy rate (busy events/executed inst)
system.switch_cpus_1.iq.ISSUE:fu_full::No_OpClass            0      0.00%      0.00% # attempts to use FU when none available
system.switch_cpus_1.iq.ISSUE:fu_full::IntAlu           19      0.01%      0.01% # attempts to use FU when none available
system.switch_cpus_1.iq.ISSUE:fu_full::IntMult            0      0.00%      0.01% # attempts to use FU when none available
system.switch_cpus_1.iq.ISSUE:fu_full::IntDiv            0      0.00%      0.01% # attempts to use FU when none available
system.switch_cpus_1.iq.ISSUE:fu_full::FloatAdd          499      0.16%      0.16% # attempts to use FU when none available
system.switch_cpus_1.iq.ISSUE:fu_full::FloatCmp         1639      0.52%      0.69% # attempts to use FU when none available
system.switch_cpus_1.iq.ISSUE:fu_full::FloatCvt            0      0.00%      0.69% # attempts to use FU when none available
system.switch_cpus_1.iq.ISSUE:fu_full::FloatMult       110447     35.16%     35.85% # attempts to use FU when none available
system.switch_cpus_1.iq.ISSUE:fu_full::FloatDiv            0      0.00%     35.85% # attempts to use FU when none available
system.switch_cpus_1.iq.ISSUE:fu_full::FloatSqrt            0      0.00%     35.85% # attempts to use FU when none available
system.switch_cpus_1.iq.ISSUE:fu_full::MemRead       146743     46.71%     82.56% # attempts to use FU when none available
system.switch_cpus_1.iq.ISSUE:fu_full::MemWrite        54786     17.44%    100.00% # attempts to use FU when none available
system.switch_cpus_1.iq.ISSUE:fu_full::IprAccess            0      0.00%    100.00% # attempts to use FU when none available
system.switch_cpus_1.iq.ISSUE:fu_full::InstPrefetch            0      0.00%    100.00% # attempts to use FU when none available
system.switch_cpus_1.iq.ISSUE:issued_per_cycle::samples     66518894                       # Number of insts issued each cycle
system.switch_cpus_1.iq.ISSUE:issued_per_cycle::mean     0.214825                       # Number of insts issued each cycle
system.switch_cpus_1.iq.ISSUE:issued_per_cycle::stdev     0.635818                       # Number of insts issued each cycle
system.switch_cpus_1.iq.ISSUE:issued_per_cycle::underflows            0      0.00%      0.00% # Number of insts issued each cycle
system.switch_cpus_1.iq.ISSUE:issued_per_cycle::0     56824596     85.43%     85.43% # Number of insts issued each cycle
system.switch_cpus_1.iq.ISSUE:issued_per_cycle::1      7084561     10.65%     96.08% # Number of insts issued each cycle
system.switch_cpus_1.iq.ISSUE:issued_per_cycle::2      1536739      2.31%     98.39% # Number of insts issued each cycle
system.switch_cpus_1.iq.ISSUE:issued_per_cycle::3       415674      0.62%     99.01% # Number of insts issued each cycle
system.switch_cpus_1.iq.ISSUE:issued_per_cycle::4       477739      0.72%     99.73% # Number of insts issued each cycle
system.switch_cpus_1.iq.ISSUE:issued_per_cycle::5       112420      0.17%     99.90% # Number of insts issued each cycle
system.switch_cpus_1.iq.ISSUE:issued_per_cycle::6        59280      0.09%     99.99% # Number of insts issued each cycle
system.switch_cpus_1.iq.ISSUE:issued_per_cycle::7         6969      0.01%    100.00% # Number of insts issued each cycle
system.switch_cpus_1.iq.ISSUE:issued_per_cycle::8          916      0.00%    100.00% # Number of insts issued each cycle
system.switch_cpus_1.iq.ISSUE:issued_per_cycle::overflows            0      0.00%    100.00% # Number of insts issued each cycle
system.switch_cpus_1.iq.ISSUE:issued_per_cycle::min_value            0                       # Number of insts issued each cycle
system.switch_cpus_1.iq.ISSUE:issued_per_cycle::max_value            8                       # Number of insts issued each cycle
system.switch_cpus_1.iq.ISSUE:issued_per_cycle::total     66518894                       # Number of insts issued each cycle
system.switch_cpus_1.iq.ISSUE:rate           0.164876                       # Inst issue rate
system.switch_cpus_1.iq.iqInstsAdded         17194600                       # Number of instructions added to the IQ (excludes non-spec)
system.switch_cpus_1.iq.iqInstsIssued        14289908                       # Number of instructions issued
system.switch_cpus_1.iq.iqSquashedInstsExamined      7192249                       # Number of squashed instructions iterated over during squash; mainly for profiling
system.switch_cpus_1.iq.iqSquashedInstsIssued       484448                       # Number of squashed instructions issued
system.switch_cpus_1.iq.iqSquashedOperandsExamined      7007798                       # Number of squashed operands that are examined and possibly removed from graph
system.switch_cpus_1.itb.data_accesses              0                       # DTB accesses
system.switch_cpus_1.itb.data_acv                   0                       # DTB access violations
system.switch_cpus_1.itb.data_hits                  0                       # DTB hits
system.switch_cpus_1.itb.data_misses                0                       # DTB misses
system.switch_cpus_1.itb.fetch_accesses       3587446                       # ITB accesses
system.switch_cpus_1.itb.fetch_acv                  0                       # ITB acv
system.switch_cpus_1.itb.fetch_hits           3587434                       # ITB hits
system.switch_cpus_1.itb.fetch_misses              12                       # ITB misses
system.switch_cpus_1.itb.read_accesses              0                       # DTB read accesses
system.switch_cpus_1.itb.read_acv                   0                       # DTB read access violations
system.switch_cpus_1.itb.read_hits                  0                       # DTB read hits
system.switch_cpus_1.itb.read_misses                0                       # DTB read misses
system.switch_cpus_1.itb.write_accesses             0                       # DTB write accesses
system.switch_cpus_1.itb.write_acv                  0                       # DTB write access violations
system.switch_cpus_1.itb.write_hits                 0                       # DTB write hits
system.switch_cpus_1.itb.write_misses               0                       # DTB write misses
system.switch_cpus_1.memDep0.conflictingLoads       806032                       # Number of conflicting loads.
system.switch_cpus_1.memDep0.conflictingStores       263994                       # Number of conflicting stores.
system.switch_cpus_1.memDep0.insertedLoads      6005888                       # Number of loads inserted to the mem dependence unit.
system.switch_cpus_1.memDep0.insertedStores      1672933                       # Number of stores inserted to the mem dependence unit.
system.switch_cpus_1.numCycles               86670666                       # number of cpu cycles simulated
system.switch_cpus_1.rename.RENAME:BlockCycles     50472762                       # Number of cycles rename is blocking
system.switch_cpus_1.rename.RENAME:CommittedMaps      7339943                       # Number of HB maps that are committed
system.switch_cpus_1.rename.RENAME:IQFullEvents       135210                       # Number of times rename has blocked due to IQ full
system.switch_cpus_1.rename.RENAME:IdleCycles      8067876                       # Number of cycles rename is idle
system.switch_cpus_1.rename.RENAME:LSQFullEvents      2754746                       # Number of times rename has blocked due to LSQ full
system.switch_cpus_1.rename.RENAME:ROBFullEvents        96130                       # Number of times rename has blocked due to ROB full
system.switch_cpus_1.rename.RENAME:RenameLookups     35713022                       # Number of register rename lookups that rename has made
system.switch_cpus_1.rename.RENAME:RenamedInsts     23781746                       # Number of instructions processed by rename
system.switch_cpus_1.rename.RENAME:RenamedOperands     16300417                       # Number of destination operands rename has renamed
system.switch_cpus_1.rename.RENAME:RunCycles      3782573                       # Number of cycles rename is running
system.switch_cpus_1.rename.RENAME:SquashCycles      1234109                       # Number of cycles rename is squashing
system.switch_cpus_1.rename.RENAME:UnblockCycles      2961573                       # Number of cycles rename is unblocking
system.switch_cpus_1.rename.RENAME:UndoneMaps      8960451                       # Number of HB maps that are undone due to squashing
system.switch_cpus_1.rename.RENAME:serializeStallCycles            0                       # count of cycles rename stalled for serializing inst
system.switch_cpus_1.rename.RENAME:serializingInsts            0                       # count of serializing insts renamed
system.switch_cpus_1.rename.RENAME:skidInsts      5290903                       # count of insts added to the skid buffer
system.switch_cpus_1.rename.RENAME:tempSerializingInsts            0                       # count of temporary serializing insts renamed
system.switch_cpus_1.timesIdled                415456                       # Number of times that the entire CPU went into an idle state and unscheduled itself

---------- End Simulation Statistics   ----------
